/*---------------------------------------------------------------------------*\
| =========                 |                                                 |
| \\      /  F ield         | OpenFOAM: The Open Source CFD Toolbox           |
|  \\    /   O peration     | Version:  2312                                  |
|   \\  /    A nd           | Website:  www.openfoam.com                      |
|    \\/     M anipulation  |                                                 |
\*---------------------------------------------------------------------------*/
Build  : _e651d635-20240208 OPENFOAM=2312 patch=240220 version=2312
Arch   : "LSB;label=32;scalar=64"
Exec   : pimpleFoam
Date   : May 30 2024
Time   : 15:35:30
Host   : codespaces-77cfd1
PID    : 37954
I/O    : uncollated
Case   : /workspaces/ProyectoFinal-IntroSciComHPC-2024-1s/serial_simulation
nProcs : 1
trapFpe: Floating point exception trapping enabled (FOAM_SIGFPE).
fileModificationChecking : Monitoring run-time modified files using timeStampMaster (fileModificationSkew 5, maxFileModificationPolls 20)
allowSystemOperations : Allowing user-supplied system call operations

// * * * * * * * * * * * * * * * * * * * * * * * * * * * * * * * * * * * * * //
Create time

Create mesh for time = 0


PIMPLE: Operating solver in PISO mode

Reading field p

Reading field U

Reading/calculating face flux field phi

Selecting incompressible transport model Newtonian
Selecting turbulence model type laminar
Selecting laminar stress model Stokes
No MRF models present

No finite volume options present
Courant Number mean: 5.6168e-05 max: 0.02
Courant Number mean: 5.6168e-05 max: 0.02

Starting time loop

Courant Number mean: 5.6168e-05 max: 0.02
Time = 10

PIMPLE: iteration 1
smoothSolver:  Solving for Ux, Initial residual = 1, Final residual = 9.53056e-07, No Iterations 1
smoothSolver:  Solving for Uy, Initial residual = 0.0649689, Final residual = 5.80721e-08, No Iterations 1
GAMG:  Solving for p, Initial residual = 1, Final residual = 0.00765085, No Iterations 9
time step continuity errors : sum local = 8.59465e-07, global = -1.77709e-07, cumulative = -1.77709e-07
GAMG:  Solving for p, Initial residual = 0.00700749, Final residual = 7.74918e-07, No Iterations 9
time step continuity errors : sum local = 5.68703e-08, global = 1.17085e-08, cumulative = -1.66e-07
ExecutionTime = 0.09 s  ClockTime = 0 s

Courant Number mean: 0.0357397 max: 0.142497
Time = 20

PIMPLE: iteration 1
smoothSolver:  Solving for Ux, Initial residual = 0.942817, Final residual = 1.6587e-07, No Iterations 2
smoothSolver:  Solving for Uy, Initial residual = 0.331794, Final residual = 3.11121e-07, No Iterations 2
GAMG:  Solving for p, Initial residual = 0.00613479, Final residual = 4.68423e-05, No Iterations 7
time step continuity errors : sum local = 3.37745e-06, global = 7.16758e-07, cumulative = 5.50757e-07
GAMG:  Solving for p, Initial residual = 0.217302, Final residual = 6.24843e-07, No Iterations 14
time step continuity errors : sum local = 1.18255e-09, global = -2.37497e-10, cumulative = 5.5052e-07
ExecutionTime = 0.12 s  ClockTime = 0 s

Courant Number mean: 0.0358442 max: 0.141449
Time = 30

PIMPLE: iteration 1
smoothSolver:  Solving for Ux, Initial residual = 0.308556, Final residual = 5.44254e-08, No Iterations 2
smoothSolver:  Solving for Uy, Initial residual = 0.245778, Final residual = 4.92338e-08, No Iterations 2
GAMG:  Solving for p, Initial residual = 0.15981, Final residual = 0.00141214, No Iterations 4
time step continuity errors : sum local = 2.27516e-06, global = 3.24053e-07, cumulative = 8.74573e-07
GAMG:  Solving for p, Initial residual = 0.164528, Final residual = 5.07709e-07, No Iterations 14
time step continuity errors : sum local = 3.7065e-10, global = 7.40401e-11, cumulative = 8.74647e-07
ExecutionTime = 0.16 s  ClockTime = 0 s

Courant Number mean: 0.0358162 max: 0.141452
Time = 40

PIMPLE: iteration 1
smoothSolver:  Solving for Ux, Initial residual = 0.059697, Final residual = 1.46643e-08, No Iterations 2
smoothSolver:  Solving for Uy, Initial residual = 0.0664363, Final residual = 1.46706e-08, No Iterations 2
GAMG:  Solving for p, Initial residual = 0.204584, Final residual = 0.00116862, No Iterations 4
time step continuity errors : sum local = 4.28293e-07, global = 5.81562e-08, cumulative = 9.32803e-07
GAMG:  Solving for p, Initial residual = 0.12636, Final residual = 7.87136e-07, No Iterations 13
time step continuity errors : sum local = 1.69643e-10, global = 3.35697e-11, cumulative = 9.32837e-07
ExecutionTime = 0.19 s  ClockTime = 0 s

Courant Number mean: 0.0358017 max: 0.141244
Time = 50

PIMPLE: iteration 1
smoothSolver:  Solving for Ux, Initial residual = 0.0162507, Final residual = 4.90112e-06, No Iterations 1
smoothSolver:  Solving for Uy, Initial residual = 0.0255782, Final residual = 6.83127e-06, No Iterations 1
GAMG:  Solving for p, Initial residual = 0.187736, Final residual = 0.000619514, No Iterations 4
time step continuity errors : sum local = 8.4613e-08, global = 7.53917e-09, cumulative = 9.40376e-07
GAMG:  Solving for p, Initial residual = 0.0771358, Final residual = 6.85919e-07, No Iterations 12
time step continuity errors : sum local = 7.47835e-11, global = 1.5827e-11, cumulative = 9.40392e-07
ExecutionTime = 0.23 s  ClockTime = 0 s

Courant Number mean: 0.0357984 max: 0.140757
Time = 60

PIMPLE: iteration 1
smoothSolver:  Solving for Ux, Initial residual = 0.00731987, Final residual = 2.31602e-06, No Iterations 1
smoothSolver:  Solving for Uy, Initial residual = 0.0114266, Final residual = 3.29108e-06, No Iterations 1
GAMG:  Solving for p, Initial residual = 0.130011, Final residual = 0.000970389, No Iterations 3
time step continuity errors : sum local = 9.76025e-08, global = -3.78975e-10, cumulative = 9.40013e-07
GAMG:  Solving for p, Initial residual = 0.0332305, Final residual = 8.5143e-07, No Iterations 9
time step continuity errors : sum local = 7.85816e-11, global = -1.56632e-11, cumulative = 9.39997e-07
ExecutionTime = 0.26 s  ClockTime = 0 s

Courant Number mean: 0.0357958 max: 0.140186
Time = 70

PIMPLE: iteration 1
smoothSolver:  Solving for Ux, Initial residual = 0.00568916, Final residual = 1.95583e-06, No Iterations 1
smoothSolver:  Solving for Uy, Initial residual = 0.00781548, Final residual = 2.53451e-06, No Iterations 1
GAMG:  Solving for p, Initial residual = 0.096788, Final residual = 0.000957992, No Iterations 2
time step continuity errors : sum local = 8.15435e-08, global = -5.21951e-10, cumulative = 9.39475e-07
GAMG:  Solving for p, Initial residual = 0.0126343, Final residual = 7.64256e-07, No Iterations 9
time step continuity errors : sum local = 6.06491e-11, global = -1.19036e-11, cumulative = 9.39463e-07
ExecutionTime = 0.29 s  ClockTime = 0 s

Courant Number mean: 0.0357938 max: 0.139663
Time = 80

PIMPLE: iteration 1
smoothSolver:  Solving for Ux, Initial residual = 0.00489561, Final residual = 1.71755e-06, No Iterations 1
smoothSolver:  Solving for Uy, Initial residual = 0.00643136, Final residual = 2.22045e-06, No Iterations 1
GAMG:  Solving for p, Initial residual = 0.0754794, Final residual = 0.00055706, No Iterations 2
time step continuity errors : sum local = 4.11063e-08, global = -4.19214e-10, cumulative = 9.39044e-07
GAMG:  Solving for p, Initial residual = 0.00856749, Final residual = 5.99969e-07, No Iterations 9
time step continuity errors : sum local = 4.17398e-11, global = -8.52091e-12, cumulative = 9.39035e-07
ExecutionTime = 0.31 s  ClockTime = 0 s

Courant Number mean: 0.0357922 max: 0.139151
Time = 90

PIMPLE: iteration 1
smoothSolver:  Solving for Ux, Initial residual = 0.00433199, Final residual = 1.53948e-06, No Iterations 1
smoothSolver:  Solving for Uy, Initial residual = 0.00553688, Final residual = 1.98871e-06, No Iterations 1
GAMG:  Solving for p, Initial residual = 0.0614701, Final residual = 0.00047096, No Iterations 2
time step continuity errors : sum local = 3.07735e-08, global = -2.4834e-10, cumulative = 9.38787e-07
GAMG:  Solving for p, Initial residual = 0.00658693, Final residual = 5.06228e-07, No Iterations 9
time step continuity errors : sum local = 3.13568e-11, global = -6.49585e-12, cumulative = 9.38781e-07
ExecutionTime = 0.33 s  ClockTime = 0 s

Courant Number mean: 0.0357912 max: 0.138655
Time = 100

PIMPLE: iteration 1
smoothSolver:  Solving for Ux, Initial residual = 0.00391082, Final residual = 1.40543e-06, No Iterations 1
smoothSolver:  Solving for Uy, Initial residual = 0.00483227, Final residual = 1.81875e-06, No Iterations 1
GAMG:  Solving for p, Initial residual = 0.057447, Final residual = 0.000411682, No Iterations 2
time step continuity errors : sum local = 2.46114e-08, global = -1.59434e-10, cumulative = 9.38621e-07
GAMG:  Solving for p, Initial residual = 0.00513215, Final residual = 8.05911e-07, No Iterations 8
time step continuity errors : sum local = 4.61367e-11, global = -9.54447e-12, cumulative = 9.38612e-07
ExecutionTime = 0.35 s  ClockTime = 0 s

Courant Number mean: 0.0357903 max: 0.138164
Time = 110

PIMPLE: iteration 1
smoothSolver:  Solving for Ux, Initial residual = 0.00358893, Final residual = 1.30567e-06, No Iterations 1
smoothSolver:  Solving for Uy, Initial residual = 0.00429047, Final residual = 1.68588e-06, No Iterations 1
GAMG:  Solving for p, Initial residual = 0.0531341, Final residual = 0.000336565, No Iterations 2
time step continuity errors : sum local = 1.87037e-08, global = -1.36387e-10, cumulative = 9.38475e-07
GAMG:  Solving for p, Initial residual = 0.0042279, Final residual = 6.80419e-07, No Iterations 8
time step continuity errors : sum local = 3.64196e-11, global = -7.55481e-12, cumulative = 9.38468e-07
ExecutionTime = 0.37 s  ClockTime = 0 s

Courant Number mean: 0.0357897 max: 0.137686
Time = 120

PIMPLE: iteration 1
smoothSolver:  Solving for Ux, Initial residual = 0.00334395, Final residual = 1.23036e-06, No Iterations 1
smoothSolver:  Solving for Uy, Initial residual = 0.00388125, Final residual = 1.58036e-06, No Iterations 1
GAMG:  Solving for p, Initial residual = 0.0476417, Final residual = 0.000262886, No Iterations 2
time step continuity errors : sum local = 1.36808e-08, global = -1.0952e-10, cumulative = 9.38358e-07
GAMG:  Solving for p, Initial residual = 0.00342149, Final residual = 5.88464e-07, No Iterations 8
time step continuity errors : sum local = 2.95817e-11, global = -6.32552e-12, cumulative = 9.38352e-07
ExecutionTime = 0.39 s  ClockTime = 0 s

Courant Number mean: 0.0357893 max: 0.137208
Time = 130

PIMPLE: iteration 1
smoothSolver:  Solving for Ux, Initial residual = 0.00317984, Final residual = 1.18134e-06, No Iterations 1
smoothSolver:  Solving for Uy, Initial residual = 0.00357288, Final residual = 1.49313e-06, No Iterations 1
GAMG:  Solving for p, Initial residual = 0.0429125, Final residual = 0.000221603, No Iterations 2
time step continuity errors : sum local = 1.08378e-08, global = -8.73283e-11, cumulative = 9.38264e-07
GAMG:  Solving for p, Initial residual = 0.0028999, Final residual = 5.29526e-07, No Iterations 8
time step continuity errors : sum local = 2.50718e-11, global = -5.48971e-12, cumulative = 9.38259e-07
ExecutionTime = 0.41 s  ClockTime = 1 s

Courant Number mean: 0.0357889 max: 0.136742
Time = 140

PIMPLE: iteration 1
smoothSolver:  Solving for Ux, Initial residual = 0.00305191, Final residual = 1.14421e-06, No Iterations 1
smoothSolver:  Solving for Uy, Initial residual = 0.00333069, Final residual = 1.42024e-06, No Iterations 1
GAMG:  Solving for p, Initial residual = 0.0397122, Final residual = 0.000207004, No Iterations 2
time step continuity errors : sum local = 9.53829e-09, global = -6.77603e-11, cumulative = 9.38191e-07
GAMG:  Solving for p, Initial residual = 0.00261637, Final residual = 9.41635e-07, No Iterations 7
time step continuity errors : sum local = 4.20566e-11, global = -9.51911e-12, cumulative = 9.38182e-07
ExecutionTime = 0.43 s  ClockTime = 1 s

Courant Number mean: 0.0357886 max: 0.136273
Time = 150

PIMPLE: iteration 1
smoothSolver:  Solving for Ux, Initial residual = 0.00294441, Final residual = 1.11286e-06, No Iterations 1
smoothSolver:  Solving for Uy, Initial residual = 0.00312294, Final residual = 1.35641e-06, No Iterations 1
GAMG:  Solving for p, Initial residual = 0.0368286, Final residual = 0.000187498, No Iterations 2
time step continuity errors : sum local = 8.16129e-09, global = -6.30097e-11, cumulative = 9.38119e-07
GAMG:  Solving for p, Initial residual = 0.00234652, Final residual = 8.51872e-07, No Iterations 7
time step continuity errors : sum local = 3.60172e-11, global = -8.28333e-12, cumulative = 9.3811e-07
ExecutionTime = 0.45 s  ClockTime = 1 s

Courant Number mean: 0.0357883 max: 0.135814
Time = 160

PIMPLE: iteration 1
smoothSolver:  Solving for Ux, Initial residual = 0.0028568, Final residual = 1.08618e-06, No Iterations 1
smoothSolver:  Solving for Uy, Initial residual = 0.00294902, Final residual = 1.3015e-06, No Iterations 1
GAMG:  Solving for p, Initial residual = 0.034799, Final residual = 0.000179927, No Iterations 2
time step continuity errors : sum local = 7.41862e-09, global = -4.50019e-11, cumulative = 9.38065e-07
GAMG:  Solving for p, Initial residual = 0.00210941, Final residual = 7.53538e-07, No Iterations 7
time step continuity errors : sum local = 3.02119e-11, global = -6.83706e-12, cumulative = 9.38059e-07
ExecutionTime = 0.47 s  ClockTime = 1 s

Courant Number mean: 0.0357881 max: 0.135354
Time = 170

PIMPLE: iteration 1
smoothSolver:  Solving for Ux, Initial residual = 0.00277726, Final residual = 1.062e-06, No Iterations 1
smoothSolver:  Solving for Uy, Initial residual = 0.00279098, Final residual = 1.25127e-06, No Iterations 1
GAMG:  Solving for p, Initial residual = 0.0323637, Final residual = 0.000168345, No Iterations 2
time step continuity errors : sum local = 6.59109e-09, global = -3.61313e-11, cumulative = 9.38022e-07
GAMG:  Solving for p, Initial residual = 0.00185613, Final residual = 6.64025e-07, No Iterations 7
time step continuity errors : sum local = 2.53242e-11, global = -5.55599e-12, cumulative = 9.38017e-07
ExecutionTime = 0.49 s  ClockTime = 1 s

Courant Number mean: 0.035788 max: 0.134903
Time = 180

PIMPLE: iteration 1
smoothSolver:  Solving for Ux, Initial residual = 0.00270575, Final residual = 1.03961e-06, No Iterations 1
smoothSolver:  Solving for Uy, Initial residual = 0.00265607, Final residual = 1.20722e-06, No Iterations 1
GAMG:  Solving for p, Initial residual = 0.0307722, Final residual = 0.000162967, No Iterations 2
time step continuity errors : sum local = 6.07539e-09, global = -2.85511e-11, cumulative = 9.37988e-07
GAMG:  Solving for p, Initial residual = 0.00170348, Final residual = 6.07949e-07, No Iterations 7
time step continuity errors : sum local = 2.21001e-11, global = -4.81646e-12, cumulative = 9.37983e-07
ExecutionTime = 0.51 s  ClockTime = 1 s

Courant Number mean: 0.0357879 max: 0.134452
Time = 190

PIMPLE: iteration 1
smoothSolver:  Solving for Ux, Initial residual = 0.00264126, Final residual = 1.01885e-06, No Iterations 1
smoothSolver:  Solving for Uy, Initial residual = 0.0025332, Final residual = 1.16768e-06, No Iterations 1
GAMG:  Solving for p, Initial residual = 0.0292499, Final residual = 0.000152946, No Iterations 2
time step continuity errors : sum local = 5.44058e-09, global = -2.35196e-11, cumulative = 9.3796e-07
GAMG:  Solving for p, Initial residual = 0.00161544, Final residual = 5.41189e-07, No Iterations 7
time step continuity errors : sum local = 1.87982e-11, global = -3.96396e-12, cumulative = 9.37956e-07
ExecutionTime = 0.53 s  ClockTime = 1 s

Courant Number mean: 0.0357878 max: 0.134008
Time = 200

PIMPLE: iteration 1
smoothSolver:  Solving for Ux, Initial residual = 0.00258254, Final residual = 9.99784e-07, No Iterations 1
smoothSolver:  Solving for Uy, Initial residual = 0.00242426, Final residual = 1.13194e-06, No Iterations 1
GAMG:  Solving for p, Initial residual = 0.027714, Final residual = 0.000145156, No Iterations 2
time step continuity errors : sum local = 4.94021e-09, global = -1.90026e-11, cumulative = 9.37937e-07
GAMG:  Solving for p, Initial residual = 0.0014812, Final residual = 9.97949e-07, No Iterations 6
time step continuity errors : sum local = 3.32069e-11, global = -6.95986e-12, cumulative = 9.3793e-07
ExecutionTime = 0.55 s  ClockTime = 1 s

Courant Number mean: 0.0357878 max: 0.133583
Time = 210

PIMPLE: iteration 1
smoothSolver:  Solving for Ux, Initial residual = 0.00252885, Final residual = 9.82028e-07, No Iterations 1
smoothSolver:  Solving for Uy, Initial residual = 0.00232656, Final residual = 1.09876e-06, No Iterations 1
GAMG:  Solving for p, Initial residual = 0.0268488, Final residual = 0.000139496, No Iterations 2
time step continuity errors : sum local = 4.55023e-09, global = -2.41911e-11, cumulative = 9.37906e-07
GAMG:  Solving for p, Initial residual = 0.0014483, Final residual = 9.44794e-07, No Iterations 6
time step continuity errors : sum local = 3.01543e-11, global = -6.20655e-12, cumulative = 9.379e-07
ExecutionTime = 0.56 s  ClockTime = 1 s

Courant Number mean: 0.0357878 max: 0.133175
Time = 220

PIMPLE: iteration 1
smoothSolver:  Solving for Ux, Initial residual = 0.00248064, Final residual = 9.65749e-07, No Iterations 1
smoothSolver:  Solving for Uy, Initial residual = 0.00223859, Final residual = 1.06851e-06, No Iterations 1
GAMG:  Solving for p, Initial residual = 0.0258513, Final residual = 0.000135031, No Iterations 2
time step continuity errors : sum local = 4.22891e-09, global = -1.44291e-11, cumulative = 9.37885e-07
GAMG:  Solving for p, Initial residual = 0.00140948, Final residual = 8.7905e-07, No Iterations 6
time step continuity errors : sum local = 2.69604e-11, global = -5.52254e-12, cumulative = 9.3788e-07
ExecutionTime = 0.58 s  ClockTime = 1 s

Courant Number mean: 0.0357878 max: 0.13277
Time = 230

PIMPLE: iteration 1
smoothSolver:  Solving for Ux, Initial residual = 0.00243613, Final residual = 9.50712e-07, No Iterations 1
smoothSolver:  Solving for Uy, Initial residual = 0.00215948, Final residual = 1.0397e-06, No Iterations 1
GAMG:  Solving for p, Initial residual = 0.0248702, Final residual = 0.000129291, No Iterations 2
time step continuity errors : sum local = 3.8932e-09, global = -1.03013e-11, cumulative = 9.37869e-07
GAMG:  Solving for p, Initial residual = 0.00135557, Final residual = 7.75845e-07, No Iterations 6
time step continuity errors : sum local = 2.2898e-11, global = -4.61298e-12, cumulative = 9.37865e-07
ExecutionTime = 0.6 s  ClockTime = 1 s

Courant Number mean: 0.0357879 max: 0.132371
Time = 240

PIMPLE: iteration 1
smoothSolver:  Solving for Ux, Initial residual = 0.00239532, Final residual = 9.36706e-07, No Iterations 1
smoothSolver:  Solving for Uy, Initial residual = 0.00208926, Final residual = 1.01318e-06, No Iterations 1
GAMG:  Solving for p, Initial residual = 0.0239143, Final residual = 0.000122083, No Iterations 2
time step continuity errors : sum local = 3.53905e-09, global = -8.15219e-12, cumulative = 9.37857e-07
GAMG:  Solving for p, Initial residual = 0.0012181, Final residual = 7.28763e-07, No Iterations 6
time step continuity errors : sum local = 2.07244e-11, global = -4.1327e-12, cumulative = 9.37852e-07
ExecutionTime = 0.62 s  ClockTime = 1 s

Courant Number mean: 0.035788 max: 0.131975
Time = 250

PIMPLE: iteration 1
smoothSolver:  Solving for Ux, Initial residual = 0.00235708, Final residual = 9.23418e-07, No Iterations 1
smoothSolver:  Solving for Uy, Initial residual = 0.00202575, Final residual = 9.88735e-07, No Iterations 1
GAMG:  Solving for p, Initial residual = 0.0226232, Final residual = 0.000118905, No Iterations 2
time step continuity errors : sum local = 3.32508e-09, global = -7.30347e-12, cumulative = 9.37845e-07
GAMG:  Solving for p, Initial residual = 0.00112355, Final residual = 6.93679e-07, No Iterations 6
time step continuity errors : sum local = 1.90501e-11, global = -3.79396e-12, cumulative = 9.37841e-07
ExecutionTime = 0.63 s  ClockTime = 1 s

Courant Number mean: 0.035788 max: 0.131584
Time = 260

PIMPLE: iteration 1
smoothSolver:  Solving for Ux, Initial residual = 0.00232144, Final residual = 9.10858e-07, No Iterations 1
smoothSolver:  Solving for Uy, Initial residual = 0.00196866, Final residual = 9.66254e-07, No Iterations 1
GAMG:  Solving for p, Initial residual = 0.0215573, Final residual = 0.000109807, No Iterations 2
time step continuity errors : sum local = 2.96791e-09, global = -6.73451e-12, cumulative = 9.37835e-07
GAMG:  Solving for p, Initial residual = 0.00103763, Final residual = 6.33894e-07, No Iterations 6
time step continuity errors : sum local = 1.68428e-11, global = -3.30655e-12, cumulative = 9.37831e-07
ExecutionTime = 0.65 s  ClockTime = 1 s

Courant Number mean: 0.0357881 max: 0.131198
Time = 270

PIMPLE: iteration 1
smoothSolver:  Solving for Ux, Initial residual = 0.00228799, Final residual = 8.98966e-07, No Iterations 1
smoothSolver:  Solving for Uy, Initial residual = 0.00191659, Final residual = 9.45017e-07, No Iterations 1
GAMG:  Solving for p, Initial residual = 0.0205753, Final residual = 0.000105558, No Iterations 2
time step continuity errors : sum local = 2.76255e-09, global = -5.09686e-12, cumulative = 9.37826e-07
GAMG:  Solving for p, Initial residual = 0.000975948, Final residual = 6.00429e-07, No Iterations 6
time step continuity errors : sum local = 1.54595e-11, global = -3.01109e-12, cumulative = 9.37823e-07
ExecutionTime = 0.67 s  ClockTime = 1 s

Courant Number mean: 0.0357882 max: 0.130816
Time = 280

PIMPLE: iteration 1
smoothSolver:  Solving for Ux, Initial residual = 0.00225637, Final residual = 8.87629e-07, No Iterations 1
smoothSolver:  Solving for Uy, Initial residual = 0.00186886, Final residual = 9.25126e-07, No Iterations 1
GAMG:  Solving for p, Initial residual = 0.0197835, Final residual = 0.000100406, No Iterations 2
time step continuity errors : sum local = 2.54792e-09, global = -4.29437e-12, cumulative = 9.37819e-07
GAMG:  Solving for p, Initial residual = 0.000946877, Final residual = 5.70607e-07, No Iterations 6
time step continuity errors : sum local = 1.42554e-11, global = -2.7603e-12, cumulative = 9.37816e-07
ExecutionTime = 0.69 s  ClockTime = 1 s

Courant Number mean: 0.0357883 max: 0.130437
Time = 290

PIMPLE: iteration 1
smoothSolver:  Solving for Ux, Initial residual = 0.00222664, Final residual = 8.76869e-07, No Iterations 1
smoothSolver:  Solving for Uy, Initial residual = 0.00182469, Final residual = 9.06085e-07, No Iterations 1
GAMG:  Solving for p, Initial residual = 0.0188896, Final residual = 9.77614e-05, No Iterations 2
time step continuity errors : sum local = 2.40936e-09, global = -3.43978e-12, cumulative = 9.37813e-07
GAMG:  Solving for p, Initial residual = 0.000889592, Final residual = 5.43662e-07, No Iterations 6
time step continuity errors : sum local = 1.32038e-11, global = -2.55451e-12, cumulative = 9.3781e-07
ExecutionTime = 0.71 s  ClockTime = 1 s

Courant Number mean: 0.0357885 max: 0.130064
Time = 300

PIMPLE: iteration 1
smoothSolver:  Solving for Ux, Initial residual = 0.00219845, Final residual = 8.66602e-07, No Iterations 1
smoothSolver:  Solving for Uy, Initial residual = 0.00178499, Final residual = 8.88633e-07, No Iterations 1
GAMG:  Solving for p, Initial residual = 0.0180544, Final residual = 9.35512e-05, No Iterations 2
time step continuity errors : sum local = 2.24269e-09, global = -2.92947e-12, cumulative = 9.37807e-07
GAMG:  Solving for p, Initial residual = 0.000836052, Final residual = 5.18476e-07, No Iterations 6
time step continuity errors : sum local = 1.22573e-11, global = -2.33567e-12, cumulative = 9.37805e-07
ExecutionTime = 0.73 s  ClockTime = 1 s

Courant Number mean: 0.0357886 max: 0.129694
Time = 310

PIMPLE: iteration 1
smoothSolver:  Solving for Ux, Initial residual = 0.0021715, Final residual = 8.57006e-07, No Iterations 1
smoothSolver:  Solving for Uy, Initial residual = 0.00174806, Final residual = 8.71636e-07, No Iterations 1
GAMG:  Solving for p, Initial residual = 0.0172528, Final residual = 9.01044e-05, No Iterations 2
time step continuity errors : sum local = 2.10425e-09, global = -2.33065e-12, cumulative = 9.37803e-07
GAMG:  Solving for p, Initial residual = 0.000792085, Final residual = 4.91782e-07, No Iterations 6
time step continuity errors : sum local = 1.13347e-11, global = -2.13396e-12, cumulative = 9.378e-07
ExecutionTime = 0.74 s  ClockTime = 1 s

Courant Number mean: 0.0357887 max: 0.12935
Time = 320

PIMPLE: iteration 1
smoothSolver:  Solving for Ux, Initial residual = 0.0021457, Final residual = 8.47703e-07, No Iterations 1
smoothSolver:  Solving for Uy, Initial residual = 0.0017143, Final residual = 8.56106e-07, No Iterations 1
GAMG:  Solving for p, Initial residual = 0.0166336, Final residual = 8.73186e-05, No Iterations 2
time step continuity errors : sum local = 1.98873e-09, global = -1.70087e-12, cumulative = 9.37799e-07
GAMG:  Solving for p, Initial residual = 0.000775847, Final residual = 9.9236e-07, No Iterations 5
time step continuity errors : sum local = 2.23138e-11, global = -4.00651e-12, cumulative = 9.37795e-07
ExecutionTime = 0.76 s  ClockTime = 1 s

Courant Number mean: 0.0357888 max: 0.129018
Time = 330

PIMPLE: iteration 1
smoothSolver:  Solving for Ux, Initial residual = 0.00212137, Final residual = 8.38856e-07, No Iterations 1
smoothSolver:  Solving for Uy, Initial residual = 0.00168206, Final residual = 8.4039e-07, No Iterations 1
GAMG:  Solving for p, Initial residual = 0.0160502, Final residual = 8.16044e-05, No Iterations 2
time step continuity errors : sum local = 1.81421e-09, global = -6.09228e-12, cumulative = 9.37789e-07
GAMG:  Solving for p, Initial residual = 0.000757036, Final residual = 9.49009e-07, No Iterations 5
time step continuity errors : sum local = 2.08445e-11, global = -3.81982e-12, cumulative = 9.37785e-07
ExecutionTime = 0.78 s  ClockTime = 1 s

Courant Number mean: 0.035789 max: 0.128693
Time = 340

PIMPLE: iteration 1
smoothSolver:  Solving for Ux, Initial residual = 0.00209862, Final residual = 8.30143e-07, No Iterations 1
smoothSolver:  Solving for Uy, Initial residual = 0.00165273, Final residual = 8.26365e-07, No Iterations 1
GAMG:  Solving for p, Initial residual = 0.0152382, Final residual = 7.83559e-05, No Iterations 2
time step continuity errors : sum local = 1.7024e-09, global = -3.2696e-12, cumulative = 9.37782e-07
GAMG:  Solving for p, Initial residual = 0.000702454, Final residual = 9.02296e-07, No Iterations 5
time step continuity errors : sum local = 1.93751e-11, global = -3.49035e-12, cumulative = 9.37778e-07
ExecutionTime = 0.8 s  ClockTime = 1 s

Courant Number mean: 0.0357891 max: 0.128371
Time = 350

PIMPLE: iteration 1
smoothSolver:  Solving for Ux, Initial residual = 0.00207679, Final residual = 8.21966e-07, No Iterations 1
smoothSolver:  Solving for Uy, Initial residual = 0.00162471, Final residual = 8.12167e-07, No Iterations 1
GAMG:  Solving for p, Initial residual = 0.0147364, Final residual = 7.60629e-05, No Iterations 2
time step continuity errors : sum local = 1.61688e-09, global = -2.69861e-12, cumulative = 9.37775e-07
GAMG:  Solving for p, Initial residual = 0.000674272, Final residual = 8.74592e-07, No Iterations 5
time step continuity errors : sum local = 1.83901e-11, global = -3.28616e-12, cumulative = 9.37772e-07
ExecutionTime = 0.82 s  ClockTime = 1 s

Courant Number mean: 0.0357893 max: 0.128054
Time = 360

PIMPLE: iteration 1
smoothSolver:  Solving for Ux, Initial residual = 0.00205593, Final residual = 8.13833e-07, No Iterations 1
smoothSolver:  Solving for Uy, Initial residual = 0.00159873, Final residual = 7.99343e-07, No Iterations 1
GAMG:  Solving for p, Initial residual = 0.0141841, Final residual = 7.2262e-05, No Iterations 2
time step continuity errors : sum local = 1.50428e-09, global = -2.44613e-12, cumulative = 9.3777e-07
GAMG:  Solving for p, Initial residual = 0.00064844, Final residual = 8.29112e-07, No Iterations 5
time step continuity errors : sum local = 1.70743e-11, global = -3.04316e-12, cumulative = 9.37767e-07
ExecutionTime = 0.83 s  ClockTime = 1 s

Courant Number mean: 0.0357895 max: 0.12774
Time = 370

PIMPLE: iteration 1
smoothSolver:  Solving for Ux, Initial residual = 0.00203636, Final residual = 8.06198e-07, No Iterations 1
smoothSolver:  Solving for Uy, Initial residual = 0.00157304, Final residual = 7.86544e-07, No Iterations 1
GAMG:  Solving for p, Initial residual = 0.0135937, Final residual = 6.95241e-05, No Iterations 2
time step continuity errors : sum local = 1.41846e-09, global = -2.0058e-12, cumulative = 9.37765e-07
GAMG:  Solving for p, Initial residual = 0.000623234, Final residual = 7.98078e-07, No Iterations 5
time step continuity errors : sum local = 1.61201e-11, global = -2.86259e-12, cumulative = 9.37762e-07
ExecutionTime = 0.85 s  ClockTime = 1 s

Courant Number mean: 0.0357896 max: 0.127431
Time = 380

PIMPLE: iteration 1
smoothSolver:  Solving for Ux, Initial residual = 0.00201821, Final residual = 7.98586e-07, No Iterations 1
smoothSolver:  Solving for Uy, Initial residual = 0.00154912, Final residual = 7.74757e-07, No Iterations 1
GAMG:  Solving for p, Initial residual = 0.0129723, Final residual = 6.60152e-05, No Iterations 2
time step continuity errors : sum local = 1.3213e-09, global = -1.63562e-12, cumulative = 9.3776e-07
GAMG:  Solving for p, Initial residual = 0.00059026, Final residual = 7.69533e-07, No Iterations 5
time step continuity errors : sum local = 1.52518e-11, global = -2.69569e-12, cumulative = 9.37757e-07
ExecutionTime = 0.87 s  ClockTime = 1 s

Courant Number mean: 0.0357898 max: 0.127125
Time = 390

PIMPLE: iteration 1
smoothSolver:  Solving for Ux, Initial residual = 0.00200104, Final residual = 7.91416e-07, No Iterations 1
smoothSolver:  Solving for Uy, Initial residual = 0.00152667, Final residual = 7.633e-07, No Iterations 1
GAMG:  Solving for p, Initial residual = 0.0125297, Final residual = 6.36051e-05, No Iterations 2
time step continuity errors : sum local = 1.24976e-09, global = -1.57197e-12, cumulative = 9.37756e-07
GAMG:  Solving for p, Initial residual = 0.000573429, Final residual = 7.3076e-07, No Iterations 5
time step continuity errors : sum local = 1.42257e-11, global = -2.5258e-12, cumulative = 9.37753e-07
ExecutionTime = 0.88 s  ClockTime = 1 s

Courant Number mean: 0.0357899 max: 0.126824
Time = 400

PIMPLE: iteration 1
smoothSolver:  Solving for Ux, Initial residual = 0.00198459, Final residual = 7.84369e-07, No Iterations 1
smoothSolver:  Solving for Uy, Initial residual = 0.0015054, Final residual = 7.52013e-07, No Iterations 1
GAMG:  Solving for p, Initial residual = 0.0119761, Final residual = 6.07819e-05, No Iterations 2
time step continuity errors : sum local = 1.17323e-09, global = -1.06064e-12, cumulative = 9.37752e-07
GAMG:  Solving for p, Initial residual = 0.000552545, Final residual = 7.3719e-07, No Iterations 5
time step continuity errors : sum local = 1.41004e-11, global = -2.46609e-12, cumulative = 9.3775e-07
ExecutionTime = 0.9 s  ClockTime = 1 s

Courant Number mean: 0.0357901 max: 0.126527
Time = 410

PIMPLE: iteration 1
smoothSolver:  Solving for Ux, Initial residual = 0.00196878, Final residual = 7.77566e-07, No Iterations 1
smoothSolver:  Solving for Uy, Initial residual = 0.00148589, Final residual = 7.41523e-07, No Iterations 1
GAMG:  Solving for p, Initial residual = 0.0116352, Final residual = 6.05821e-05, No Iterations 2
time step continuity errors : sum local = 1.14927e-09, global = -9.588e-13, cumulative = 9.37749e-07
GAMG:  Solving for p, Initial residual = 0.000539848, Final residual = 7.26279e-07, No Iterations 5
time step continuity errors : sum local = 1.36563e-11, global = -2.35335e-12, cumulative = 9.37746e-07
ExecutionTime = 0.92 s  ClockTime = 1 s

Courant Number mean: 0.0357902 max: 0.126233
Time = 420

PIMPLE: iteration 1
smoothSolver:  Solving for Ux, Initial residual = 0.00195344, Final residual = 7.70807e-07, No Iterations 1
smoothSolver:  Solving for Uy, Initial residual = 0.00146744, Final residual = 7.31572e-07, No Iterations 1
GAMG:  Solving for p, Initial residual = 0.011127, Final residual = 5.60535e-05, No Iterations 2
time step continuity errors : sum local = 1.04564e-09, global = -6.76737e-13, cumulative = 9.37746e-07
GAMG:  Solving for p, Initial residual = 0.000503277, Final residual = 6.72664e-07, No Iterations 5
time step continuity errors : sum local = 1.24416e-11, global = -2.15188e-12, cumulative = 9.37744e-07
ExecutionTime = 0.93 s  ClockTime = 1 s

Courant Number mean: 0.0357904 max: 0.125943
Time = 430

PIMPLE: iteration 1
smoothSolver:  Solving for Ux, Initial residual = 0.00193949, Final residual = 7.6473e-07, No Iterations 1
smoothSolver:  Solving for Uy, Initial residual = 0.00145043, Final residual = 7.22106e-07, No Iterations 1
GAMG:  Solving for p, Initial residual = 0.0107583, Final residual = 5.20972e-05, No Iterations 2
time step continuity errors : sum local = 9.5625e-10, global = -2.0613e-13, cumulative = 9.37743e-07
GAMG:  Solving for p, Initial residual = 0.00051717, Final residual = 6.35102e-07, No Iterations 5
time step continuity errors : sum local = 1.15625e-11, global = -2.0053e-12, cumulative = 9.37741e-07
ExecutionTime = 0.96 s  ClockTime = 1 s

Courant Number mean: 0.0357906 max: 0.125672
Time = 440

PIMPLE: iteration 1
smoothSolver:  Solving for Ux, Initial residual = 0.0019264, Final residual = 7.5891e-07, No Iterations 1
smoothSolver:  Solving for Uy, Initial residual = 0.00143425, Final residual = 7.12823e-07, No Iterations 1
GAMG:  Solving for p, Initial residual = 0.0104363, Final residual = 5.0489e-05, No Iterations 2
time step continuity errors : sum local = 9.12279e-10, global = -4.85354e-14, cumulative = 9.37741e-07
GAMG:  Solving for p, Initial residual = 0.000475966, Final residual = 6.08122e-07, No Iterations 5
time step continuity errors : sum local = 1.09001e-11, global = -1.88934e-12, cumulative = 9.37739e-07
ExecutionTime = 0.98 s  ClockTime = 1 s

Courant Number mean: 0.0357907 max: 0.125418
Time = 450

PIMPLE: iteration 1
smoothSolver:  Solving for Ux, Initial residual = 0.00191392, Final residual = 7.53261e-07, No Iterations 1
smoothSolver:  Solving for Uy, Initial residual = 0.00141849, Final residual = 7.04127e-07, No Iterations 1
GAMG:  Solving for p, Initial residual = 0.0100856, Final residual = 4.85944e-05, No Iterations 2
time step continuity errors : sum local = 8.64734e-10, global = 1.38805e-13, cumulative = 9.3774e-07
GAMG:  Solving for p, Initial residual = 0.000456287, Final residual = 5.82639e-07, No Iterations 5
time step continuity errors : sum local = 1.02882e-11, global = -1.78243e-12, cumulative = 9.37738e-07
ExecutionTime = 1 s  ClockTime = 1 s

Courant Number mean: 0.0357909 max: 0.125167
Time = 460

PIMPLE: iteration 1
smoothSolver:  Solving for Ux, Initial residual = 0.00190202, Final residual = 7.47767e-07, No Iterations 1
smoothSolver:  Solving for Uy, Initial residual = 0.0014043, Final residual = 6.95812e-07, No Iterations 1
GAMG:  Solving for p, Initial residual = 0.00986518, Final residual = 4.96959e-05, No Iterations 2
time step continuity errors : sum local = 8.71209e-10, global = 4.71019e-14, cumulative = 9.37738e-07
GAMG:  Solving for p, Initial residual = 0.000475862, Final residual = 6.51836e-07, No Iterations 5
time step continuity errors : sum local = 1.13399e-11, global = -1.92614e-12, cumulative = 9.37736e-07
ExecutionTime = 1.01 s  ClockTime = 1 s

Courant Number mean: 0.0357911 max: 0.124919
Time = 470

PIMPLE: iteration 1
smoothSolver:  Solving for Ux, Initial residual = 0.00189058, Final residual = 7.42347e-07, No Iterations 1
smoothSolver:  Solving for Uy, Initial residual = 0.00139105, Final residual = 6.87955e-07, No Iterations 1
GAMG:  Solving for p, Initial residual = 0.0095937, Final residual = 4.78462e-05, No Iterations 2
time step continuity errors : sum local = 8.26596e-10, global = 2.49448e-14, cumulative = 9.37736e-07
GAMG:  Solving for p, Initial residual = 0.00044624, Final residual = 5.66894e-07, No Iterations 5
time step continuity errors : sum local = 9.72077e-12, global = -1.64843e-12, cumulative = 9.37734e-07
ExecutionTime = 1.03 s  ClockTime = 1 s

Courant Number mean: 0.0357913 max: 0.124675
Time = 480

PIMPLE: iteration 1
smoothSolver:  Solving for Ux, Initial residual = 0.00187957, Final residual = 7.37076e-07, No Iterations 1
smoothSolver:  Solving for Uy, Initial residual = 0.00137833, Final residual = 6.80365e-07, No Iterations 1
GAMG:  Solving for p, Initial residual = 0.00960044, Final residual = 4.94139e-05, No Iterations 2
time step continuity errors : sum local = 8.41333e-10, global = 6.3277e-13, cumulative = 9.37735e-07
GAMG:  Solving for p, Initial residual = 0.000472844, Final residual = 6.43758e-07, No Iterations 5
time step continuity errors : sum local = 1.08791e-11, global = -1.79128e-12, cumulative = 9.37733e-07
ExecutionTime = 1.04 s  ClockTime = 1 s

Courant Number mean: 0.0357915 max: 0.124434
Time = 490

PIMPLE: iteration 1
smoothSolver:  Solving for Ux, Initial residual = 0.00186879, Final residual = 7.31862e-07, No Iterations 1
smoothSolver:  Solving for Uy, Initial residual = 0.00136683, Final residual = 6.74339e-07, No Iterations 1
GAMG:  Solving for p, Initial residual = 0.00924717, Final residual = 4.4691e-05, No Iterations 2
time step continuity errors : sum local = 7.50284e-10, global = 3.85562e-13, cumulative = 9.37734e-07
GAMG:  Solving for p, Initial residual = 0.000425324, Final residual = 5.09492e-07, No Iterations 5
time step continuity errors : sum local = 8.49339e-12, global = -1.40673e-12, cumulative = 9.37732e-07
ExecutionTime = 1.06 s  ClockTime = 1 s

Courant Number mean: 0.0357916 max: 0.124197
Time = 500

PIMPLE: iteration 1
smoothSolver:  Solving for Ux, Initial residual = 0.00185836, Final residual = 7.26767e-07, No Iterations 1
smoothSolver:  Solving for Uy, Initial residual = 0.00135447, Final residual = 6.66179e-07, No Iterations 1
GAMG:  Solving for p, Initial residual = 0.00886608, Final residual = 4.19828e-05, No Iterations 2
time step continuity errors : sum local = 6.9519e-10, global = 1.35135e-12, cumulative = 9.37733e-07
GAMG:  Solving for p, Initial residual = 0.000402508, Final residual = 5.03102e-07, No Iterations 5
time step continuity errors : sum local = 8.27294e-12, global = -1.37743e-12, cumulative = 9.37732e-07
ExecutionTime = 1.07 s  ClockTime = 1 s

Courant Number mean: 0.0357918 max: 0.123962
Time = 510

PIMPLE: iteration 1
smoothSolver:  Solving for Ux, Initial residual = 0.00184817, Final residual = 7.2188e-07, No Iterations 1
smoothSolver:  Solving for Uy, Initial residual = 0.00134346, Final residual = 6.60645e-07, No Iterations 1
GAMG:  Solving for p, Initial residual = 0.00870967, Final residual = 4.05185e-05, No Iterations 2
time step continuity errors : sum local = 6.62057e-10, global = 1.03353e-12, cumulative = 9.37733e-07
GAMG:  Solving for p, Initial residual = 0.000399142, Final residual = 9.93667e-07, No Iterations 4
time step continuity errors : sum local = 1.61279e-11, global = -2.29522e-12, cumulative = 9.37731e-07
ExecutionTime = 1.09 s  ClockTime = 1 s

Courant Number mean: 0.035792 max: 0.123731
Time = 520

PIMPLE: iteration 1
smoothSolver:  Solving for Ux, Initial residual = 0.00183827, Final residual = 7.16976e-07, No Iterations 1
smoothSolver:  Solving for Uy, Initial residual = 0.00133168, Final residual = 6.52777e-07, No Iterations 1
GAMG:  Solving for p, Initial residual = 0.0084868, Final residual = 3.72639e-05, No Iterations 2
time step continuity errors : sum local = 6.00941e-10, global = -5.0257e-13, cumulative = 9.3773e-07
GAMG:  Solving for p, Initial residual = 0.000422399, Final residual = 4.7007e-07, No Iterations 5
time step continuity errors : sum local = 7.53089e-12, global = -1.29315e-12, cumulative = 9.37729e-07
ExecutionTime = 1.1 s  ClockTime = 1 s

Courant Number mean: 0.0357922 max: 0.123503
Time = 530

PIMPLE: iteration 1
smoothSolver:  Solving for Ux, Initial residual = 0.00182894, Final residual = 7.12343e-07, No Iterations 1
smoothSolver:  Solving for Uy, Initial residual = 0.00132105, Final residual = 6.47831e-07, No Iterations 1
GAMG:  Solving for p, Initial residual = 0.00824433, Final residual = 3.67289e-05, No Iterations 2
time step continuity errors : sum local = 5.84921e-10, global = 2.18466e-12, cumulative = 9.37731e-07
GAMG:  Solving for p, Initial residual = 0.000375837, Final residual = 9.5754e-07, No Iterations 4
time step continuity errors : sum local = 1.51532e-11, global = -1.70269e-12, cumulative = 9.3773e-07
ExecutionTime = 1.12 s  ClockTime = 1 s

Courant Number mean: 0.0357924 max: 0.123279
Time = 540

PIMPLE: iteration 1
smoothSolver:  Solving for Ux, Initial residual = 0.0018194, Final residual = 7.07536e-07, No Iterations 1
smoothSolver:  Solving for Uy, Initial residual = 0.00130986, Final residual = 6.40305e-07, No Iterations 1
GAMG:  Solving for p, Initial residual = 0.0080921, Final residual = 3.67494e-05, No Iterations 2
time step continuity errors : sum local = 5.77985e-10, global = 7.93031e-13, cumulative = 9.3773e-07
GAMG:  Solving for p, Initial residual = 0.000371303, Final residual = 8.86091e-07, No Iterations 4
time step continuity errors : sum local = 1.38495e-11, global = -2.05202e-12, cumulative = 9.37728e-07
ExecutionTime = 1.14 s  ClockTime = 1 s

Courant Number mean: 0.0357926 max: 0.123057
Time = 550

PIMPLE: iteration 1
smoothSolver:  Solving for Ux, Initial residual = 0.00181034, Final residual = 7.03e-07, No Iterations 1
smoothSolver:  Solving for Uy, Initial residual = 0.00130012, Final residual = 6.35702e-07, No Iterations 1
GAMG:  Solving for p, Initial residual = 0.00804761, Final residual = 3.62317e-05, No Iterations 2
time step continuity errors : sum local = 5.62913e-10, global = 4.95169e-13, cumulative = 9.37729e-07
GAMG:  Solving for p, Initial residual = 0.000385242, Final residual = 9.48735e-07, No Iterations 4
time step continuity errors : sum local = 1.46497e-11, global = -2.00435e-12, cumulative = 9.37727e-07
ExecutionTime = 1.16 s  ClockTime = 1 s

Courant Number mean: 0.0357928 max: 0.122838
Time = 560

PIMPLE: iteration 1
smoothSolver:  Solving for Ux, Initial residual = 0.00180133, Final residual = 6.98348e-07, No Iterations 1
smoothSolver:  Solving for Uy, Initial residual = 0.00128969, Final residual = 6.28928e-07, No Iterations 1
GAMG:  Solving for p, Initial residual = 0.0078325, Final residual = 3.54423e-05, No Iterations 2
time step continuity errors : sum local = 5.44026e-10, global = 8.47913e-13, cumulative = 9.37728e-07
GAMG:  Solving for p, Initial residual = 0.000349717, Final residual = 8.85887e-07, No Iterations 4
time step continuity errors : sum local = 1.35148e-11, global = -1.74773e-12, cumulative = 9.37726e-07
ExecutionTime = 1.18 s  ClockTime = 1 s

Courant Number mean: 0.035793 max: 0.122623
Time = 570

PIMPLE: iteration 1
smoothSolver:  Solving for Ux, Initial residual = 0.0017925, Final residual = 6.93691e-07, No Iterations 1
smoothSolver:  Solving for Uy, Initial residual = 0.00127994, Final residual = 6.24549e-07, No Iterations 1
GAMG:  Solving for p, Initial residual = 0.0076865, Final residual = 3.36467e-05, No Iterations 2
time step continuity errors : sum local = 5.10351e-10, global = 1.44948e-12, cumulative = 9.37727e-07
GAMG:  Solving for p, Initial residual = 0.00034203, Final residual = 8.77063e-07, No Iterations 4
time step continuity errors : sum local = 1.32254e-11, global = -1.5216e-12, cumulative = 9.37726e-07
ExecutionTime = 1.2 s  ClockTime = 1 s

Courant Number mean: 0.0357932 max: 0.12241
Time = 580

PIMPLE: iteration 1
smoothSolver:  Solving for Ux, Initial residual = 0.00178391, Final residual = 6.89172e-07, No Iterations 1
smoothSolver:  Solving for Uy, Initial residual = 0.00126971, Final residual = 6.18175e-07, No Iterations 1
GAMG:  Solving for p, Initial residual = 0.00755862, Final residual = 3.25041e-05, No Iterations 2
time step continuity errors : sum local = 4.8731e-10, global = 1.64978e-12, cumulative = 9.37727e-07
GAMG:  Solving for p, Initial residual = 0.000331835, Final residual = 8.20261e-07, No Iterations 4
time step continuity errors : sum local = 1.22256e-11, global = -1.32238e-12, cumulative = 9.37726e-07
ExecutionTime = 1.21 s  ClockTime = 1 s

Courant Number mean: 0.0357933 max: 0.122201
Time = 590

PIMPLE: iteration 1
smoothSolver:  Solving for Ux, Initial residual = 0.00177545, Final residual = 6.8451e-07, No Iterations 1
smoothSolver:  Solving for Uy, Initial residual = 0.00126008, Final residual = 6.13722e-07, No Iterations 1
GAMG:  Solving for p, Initial residual = 0.00754388, Final residual = 3.44512e-05, No Iterations 2
time step continuity errors : sum local = 5.10541e-10, global = 1.82194e-12, cumulative = 9.37728e-07
GAMG:  Solving for p, Initial residual = 0.000358695, Final residual = 8.74634e-07, No Iterations 4
time step continuity errors : sum local = 1.28865e-11, global = -8.93452e-13, cumulative = 9.37727e-07
ExecutionTime = 1.23 s  ClockTime = 1 s

Courant Number mean: 0.0357935 max: 0.121994
Time = 600

PIMPLE: iteration 1
smoothSolver:  Solving for Ux, Initial residual = 0.00176724, Final residual = 6.79996e-07, No Iterations 1
smoothSolver:  Solving for Uy, Initial residual = 0.00125002, Final residual = 6.0732e-07, No Iterations 1
GAMG:  Solving for p, Initial residual = 0.00744356, Final residual = 3.12601e-05, No Iterations 2
time step continuity errors : sum local = 4.57941e-10, global = 2.47969e-12, cumulative = 9.3773e-07
GAMG:  Solving for p, Initial residual = 0.000337214, Final residual = 8.32623e-07, No Iterations 4
time step continuity errors : sum local = 1.21271e-11, global = -3.71702e-13, cumulative = 9.37729e-07
ExecutionTime = 1.24 s  ClockTime = 1 s

Courant Number mean: 0.0357937 max: 0.121807
Time = 610

PIMPLE: iteration 1
smoothSolver:  Solving for Ux, Initial residual = 0.00175903, Final residual = 6.75389e-07, No Iterations 1
smoothSolver:  Solving for Uy, Initial residual = 0.00124049, Final residual = 6.02363e-07, No Iterations 1
GAMG:  Solving for p, Initial residual = 0.00727337, Final residual = 2.8595e-05, No Iterations 2
time step continuity errors : sum local = 4.14191e-10, global = 3.07711e-12, cumulative = 9.37732e-07
GAMG:  Solving for p, Initial residual = 0.000352099, Final residual = 9.33655e-07, No Iterations 4
time step continuity errors : sum local = 1.34493e-11, global = -2.9826e-14, cumulative = 9.37732e-07
ExecutionTime = 1.26 s  ClockTime = 1 s

Courant Number mean: 0.0357939 max: 0.121628
Time = 620

PIMPLE: iteration 1
smoothSolver:  Solving for Ux, Initial residual = 0.00175088, Final residual = 6.7101e-07, No Iterations 1
smoothSolver:  Solving for Uy, Initial residual = 0.00123146, Final residual = 5.97162e-07, No Iterations 1
GAMG:  Solving for p, Initial residual = 0.00702902, Final residual = 2.79249e-05, No Iterations 2
time step continuity errors : sum local = 4.00083e-10, global = 3.22749e-12, cumulative = 9.37735e-07
GAMG:  Solving for p, Initial residual = 0.000298923, Final residual = 8.12679e-07, No Iterations 4
time step continuity errors : sum local = 1.15804e-11, global = 1.60383e-13, cumulative = 9.37736e-07
ExecutionTime = 1.28 s  ClockTime = 1 s

Courant Number mean: 0.0357941 max: 0.121452
Time = 630

PIMPLE: iteration 1
smoothSolver:  Solving for Ux, Initial residual = 0.00174281, Final residual = 6.66588e-07, No Iterations 1
smoothSolver:  Solving for Uy, Initial residual = 0.00122302, Final residual = 5.92672e-07, No Iterations 1
GAMG:  Solving for p, Initial residual = 0.00688479, Final residual = 2.82477e-05, No Iterations 2
time step continuity errors : sum local = 4.00404e-10, global = 3.29289e-12, cumulative = 9.37739e-07
GAMG:  Solving for p, Initial residual = 0.000302629, Final residual = 8.34392e-07, No Iterations 4
time step continuity errors : sum local = 1.17652e-11, global = 9.12709e-13, cumulative = 9.3774e-07
ExecutionTime = 1.3 s  ClockTime = 1 s

Courant Number mean: 0.0357943 max: 0.121277
Time = 640

PIMPLE: iteration 1
smoothSolver:  Solving for Ux, Initial residual = 0.00173493, Final residual = 6.62274e-07, No Iterations 1
smoothSolver:  Solving for Uy, Initial residual = 0.00121433, Final residual = 5.87862e-07, No Iterations 1
GAMG:  Solving for p, Initial residual = 0.00688883, Final residual = 2.6867e-05, No Iterations 2
time step continuity errors : sum local = 3.7684e-10, global = 4.55142e-12, cumulative = 9.37744e-07
GAMG:  Solving for p, Initial residual = 0.000327514, Final residual = 5.54499e-07, No Iterations 4
time step continuity errors : sum local = 7.73664e-12, global = 1.98406e-12, cumulative = 9.37746e-07
ExecutionTime = 1.32 s  ClockTime = 1 s

Courant Number mean: 0.0357945 max: 0.121106
Time = 650

PIMPLE: iteration 1
smoothSolver:  Solving for Ux, Initial residual = 0.00172718, Final residual = 6.57944e-07, No Iterations 1
smoothSolver:  Solving for Uy, Initial residual = 0.00120583, Final residual = 5.83719e-07, No Iterations 1
GAMG:  Solving for p, Initial residual = 0.00683561, Final residual = 2.67254e-05, No Iterations 2
time step continuity errors : sum local = 3.70932e-10, global = 6.08761e-12, cumulative = 9.37752e-07
GAMG:  Solving for p, Initial residual = 0.000305279, Final residual = 4.24875e-07, No Iterations 4
time step continuity errors : sum local = 5.86644e-12, global = 1.785e-12, cumulative = 9.37754e-07
ExecutionTime = 1.34 s  ClockTime = 1 s

Courant Number mean: 0.0357946 max: 0.120945
Time = 660

PIMPLE: iteration 1
smoothSolver:  Solving for Ux, Initial residual = 0.00171934, Final residual = 6.53528e-07, No Iterations 1
smoothSolver:  Solving for Uy, Initial residual = 0.00119786, Final residual = 5.80776e-07, No Iterations 1
GAMG:  Solving for p, Initial residual = 0.00668514, Final residual = 2.5127e-05, No Iterations 2
time step continuity errors : sum local = 3.45109e-10, global = 4.96424e-12, cumulative = 9.37759e-07
GAMG:  Solving for p, Initial residual = 0.000287351, Final residual = 4.66199e-07, No Iterations 4
time step continuity errors : sum local = 6.3702e-12, global = 1.77716e-12, cumulative = 9.37761e-07
ExecutionTime = 1.35 s  ClockTime = 1 s

Courant Number mean: 0.0357948 max: 0.120957
Time = 670

PIMPLE: iteration 1
smoothSolver:  Solving for Ux, Initial residual = 0.00171168, Final residual = 6.49245e-07, No Iterations 1
smoothSolver:  Solving for Uy, Initial residual = 0.00118966, Final residual = 5.77605e-07, No Iterations 1
GAMG:  Solving for p, Initial residual = 0.00663382, Final residual = 2.45783e-05, No Iterations 2
time step continuity errors : sum local = 3.34089e-10, global = 4.87457e-12, cumulative = 9.37766e-07
GAMG:  Solving for p, Initial residual = 0.000277035, Final residual = 5.52069e-07, No Iterations 4
time step continuity errors : sum local = 7.46583e-12, global = 1.8924e-12, cumulative = 9.37768e-07
ExecutionTime = 1.37 s  ClockTime = 1 s

Courant Number mean: 0.035795 max: 0.120968
Time = 680

PIMPLE: iteration 1
smoothSolver:  Solving for Ux, Initial residual = 0.00170428, Final residual = 6.44988e-07, No Iterations 1
smoothSolver:  Solving for Uy, Initial residual = 0.0011816, Final residual = 5.75123e-07, No Iterations 1
GAMG:  Solving for p, Initial residual = 0.00650627, Final residual = 2.34825e-05, No Iterations 2
time step continuity errors : sum local = 3.15946e-10, global = 4.98314e-12, cumulative = 9.37773e-07
GAMG:  Solving for p, Initial residual = 0.000289233, Final residual = 5.56251e-07, No Iterations 4
time step continuity errors : sum local = 7.44654e-12, global = 1.94637e-12, cumulative = 9.37775e-07
ExecutionTime = 1.38 s  ClockTime = 2 s

Courant Number mean: 0.0357952 max: 0.120979
Time = 690

PIMPLE: iteration 1
smoothSolver:  Solving for Ux, Initial residual = 0.00169703, Final residual = 6.40832e-07, No Iterations 1
smoothSolver:  Solving for Uy, Initial residual = 0.00117363, Final residual = 5.71911e-07, No Iterations 1
GAMG:  Solving for p, Initial residual = 0.00645608, Final residual = 2.31996e-05, No Iterations 2
time step continuity errors : sum local = 3.09013e-10, global = 5.02699e-12, cumulative = 9.3778e-07
GAMG:  Solving for p, Initial residual = 0.00029743, Final residual = 4.27435e-07, No Iterations 4
time step continuity errors : sum local = 5.66518e-12, global = 1.52167e-12, cumulative = 9.37781e-07
ExecutionTime = 1.4 s  ClockTime = 2 s

Courant Number mean: 0.0357954 max: 0.12099
Time = 700

PIMPLE: iteration 1
smoothSolver:  Solving for Ux, Initial residual = 0.00168978, Final residual = 6.36725e-07, No Iterations 1
smoothSolver:  Solving for Uy, Initial residual = 0.00116674, Final residual = 5.69144e-07, No Iterations 1
GAMG:  Solving for p, Initial residual = 0.0062004, Final residual = 2.1597e-05, No Iterations 2
time step continuity errors : sum local = 2.84854e-10, global = 4.36471e-12, cumulative = 9.37786e-07
GAMG:  Solving for p, Initial residual = 0.000254684, Final residual = 9.71939e-07, No Iterations 3
time step continuity errors : sum local = 1.27584e-11, global = 2.72482e-12, cumulative = 9.37788e-07
ExecutionTime = 1.41 s  ClockTime = 2 s

Courant Number mean: 0.0357955 max: 0.121
Time = 710

PIMPLE: iteration 1
smoothSolver:  Solving for Ux, Initial residual = 0.00168281, Final residual = 6.32721e-07, No Iterations 1
smoothSolver:  Solving for Uy, Initial residual = 0.00116084, Final residual = 5.6586e-07, No Iterations 1
GAMG:  Solving for p, Initial residual = 0.00610929, Final residual = 2.07397e-05, No Iterations 2
time step continuity errors : sum local = 2.70994e-10, global = 6.78765e-12, cumulative = 9.37795e-07
GAMG:  Solving for p, Initial residual = 0.000248778, Final residual = 4.24426e-07, No Iterations 4
time step continuity errors : sum local = 5.52061e-12, global = 1.29181e-12, cumulative = 9.37796e-07
ExecutionTime = 1.43 s  ClockTime = 2 s

Courant Number mean: 0.0357957 max: 0.121009
Time = 720

PIMPLE: iteration 1
smoothSolver:  Solving for Ux, Initial residual = 0.00167564, Final residual = 6.28743e-07, No Iterations 1
smoothSolver:  Solving for Uy, Initial residual = 0.0011551, Final residual = 5.63128e-07, No Iterations 1
GAMG:  Solving for p, Initial residual = 0.00605559, Final residual = 2.01078e-05, No Iterations 2
time step continuity errors : sum local = 2.60339e-10, global = 3.25029e-12, cumulative = 9.378e-07
GAMG:  Solving for p, Initial residual = 0.000252347, Final residual = 9.79233e-07, No Iterations 3
time step continuity errors : sum local = 1.26234e-11, global = 2.30825e-12, cumulative = 9.37802e-07
ExecutionTime = 1.44 s  ClockTime = 2 s

Courant Number mean: 0.0357959 max: 0.121018
Time = 730

PIMPLE: iteration 1
smoothSolver:  Solving for Ux, Initial residual = 0.00166888, Final residual = 6.24822e-07, No Iterations 1
smoothSolver:  Solving for Uy, Initial residual = 0.00114913, Final residual = 5.59848e-07, No Iterations 1
GAMG:  Solving for p, Initial residual = 0.00592658, Final residual = 1.96522e-05, No Iterations 2
time step continuity errors : sum local = 2.52287e-10, global = 6.23424e-12, cumulative = 9.37808e-07
GAMG:  Solving for p, Initial residual = 0.000245942, Final residual = 4.20187e-07, No Iterations 4
time step continuity errors : sum local = 5.3721e-12, global = 1.23265e-12, cumulative = 9.37809e-07
ExecutionTime = 1.46 s  ClockTime = 2 s

Courant Number mean: 0.0357961 max: 0.121026
Time = 740

PIMPLE: iteration 1
smoothSolver:  Solving for Ux, Initial residual = 0.00166191, Final residual = 6.20989e-07, No Iterations 1
smoothSolver:  Solving for Uy, Initial residual = 0.00114341, Final residual = 5.57195e-07, No Iterations 1
GAMG:  Solving for p, Initial residual = 0.00584973, Final residual = 1.91924e-05, No Iterations 2
time step continuity errors : sum local = 2.44329e-10, global = 3.53584e-12, cumulative = 9.37813e-07
GAMG:  Solving for p, Initial residual = 0.000248115, Final residual = 9.0462e-07, No Iterations 3
time step continuity errors : sum local = 1.14706e-11, global = 2.22445e-12, cumulative = 9.37815e-07
ExecutionTime = 1.47 s  ClockTime = 2 s

Courant Number mean: 0.0357962 max: 0.121034
Time = 750

PIMPLE: iteration 1
smoothSolver:  Solving for Ux, Initial residual = 0.00165533, Final residual = 6.17124e-07, No Iterations 1
smoothSolver:  Solving for Uy, Initial residual = 0.00113781, Final residual = 5.5411e-07, No Iterations 1
GAMG:  Solving for p, Initial residual = 0.0057903, Final residual = 1.89182e-05, No Iterations 2
time step continuity errors : sum local = 2.38904e-10, global = 6.23236e-12, cumulative = 9.37821e-07
GAMG:  Solving for p, Initial residual = 0.000247959, Final residual = 4.30308e-07, No Iterations 4
time step continuity errors : sum local = 5.41234e-12, global = 1.21227e-12, cumulative = 9.37823e-07
ExecutionTime = 1.49 s  ClockTime = 2 s

Courant Number mean: 0.0357964 max: 0.121041
Time = 760

PIMPLE: iteration 1
smoothSolver:  Solving for Ux, Initial residual = 0.00164859, Final residual = 6.13337e-07, No Iterations 1
smoothSolver:  Solving for Uy, Initial residual = 0.00113263, Final residual = 5.51398e-07, No Iterations 1
GAMG:  Solving for p, Initial residual = 0.0057515, Final residual = 1.88215e-05, No Iterations 2
time step continuity errors : sum local = 2.35749e-10, global = 3.38748e-12, cumulative = 9.37826e-07
GAMG:  Solving for p, Initial residual = 0.000256657, Final residual = 9.20112e-07, No Iterations 3
time step continuity errors : sum local = 1.14806e-11, global = 2.15419e-12, cumulative = 9.37828e-07
ExecutionTime = 1.51 s  ClockTime = 2 s

Courant Number mean: 0.0357966 max: 0.121048
Time = 770

PIMPLE: iteration 1
smoothSolver:  Solving for Ux, Initial residual = 0.00164226, Final residual = 6.09529e-07, No Iterations 1
smoothSolver:  Solving for Uy, Initial residual = 0.00112747, Final residual = 5.48653e-07, No Iterations 1
GAMG:  Solving for p, Initial residual = 0.00576256, Final residual = 1.91386e-05, No Iterations 2
time step continuity errors : sum local = 2.37844e-10, global = 6.12985e-12, cumulative = 9.37834e-07
GAMG:  Solving for p, Initial residual = 0.000277373, Final residual = 4.6431e-07, No Iterations 4
time step continuity errors : sum local = 5.74763e-12, global = 1.25933e-12, cumulative = 9.37836e-07
ExecutionTime = 1.53 s  ClockTime = 2 s

Courant Number mean: 0.0357967 max: 0.121054
Time = 780

PIMPLE: iteration 1
smoothSolver:  Solving for Ux, Initial residual = 0.00163567, Final residual = 6.05882e-07, No Iterations 1
smoothSolver:  Solving for Uy, Initial residual = 0.00112233, Final residual = 5.45904e-07, No Iterations 1
GAMG:  Solving for p, Initial residual = 0.00588675, Final residual = 2.01e-05, No Iterations 2
time step continuity errors : sum local = 2.47782e-10, global = 3.73972e-12, cumulative = 9.37839e-07
GAMG:  Solving for p, Initial residual = 0.00032854, Final residual = 4.4645e-07, No Iterations 4
time step continuity errors : sum local = 5.48258e-12, global = 1.05008e-12, cumulative = 9.3784e-07
ExecutionTime = 1.55 s  ClockTime = 2 s

Courant Number mean: 0.0357969 max: 0.12106
Time = 790

PIMPLE: iteration 1
smoothSolver:  Solving for Ux, Initial residual = 0.00162928, Final residual = 6.02175e-07, No Iterations 1
smoothSolver:  Solving for Uy, Initial residual = 0.0011174, Final residual = 5.43776e-07, No Iterations 1
GAMG:  Solving for p, Initial residual = 0.00576053, Final residual = 1.67677e-05, No Iterations 2
time step continuity errors : sum local = 2.05069e-10, global = 4.0138e-12, cumulative = 9.37844e-07
GAMG:  Solving for p, Initial residual = 0.000287111, Final residual = 4.18297e-07, No Iterations 4
time step continuity errors : sum local = 5.09591e-12, global = 1.0368e-12, cumulative = 9.37845e-07
ExecutionTime = 1.57 s  ClockTime = 2 s

Courant Number mean: 0.0357971 max: 0.121065
Time = 800

PIMPLE: iteration 1
smoothSolver:  Solving for Ux, Initial residual = 0.00162283, Final residual = 5.98564e-07, No Iterations 1
smoothSolver:  Solving for Uy, Initial residual = 0.00111263, Final residual = 5.41083e-07, No Iterations 1
GAMG:  Solving for p, Initial residual = 0.00560691, Final residual = 1.78332e-05, No Iterations 2
time step continuity errors : sum local = 2.16396e-10, global = 4.31762e-12, cumulative = 9.3785e-07
GAMG:  Solving for p, Initial residual = 0.000265825, Final residual = 4.34585e-07, No Iterations 4
time step continuity errors : sum local = 5.25418e-12, global = 1.07358e-12, cumulative = 9.37851e-07
ExecutionTime = 1.59 s  ClockTime = 2 s

Courant Number mean: 0.0357972 max: 0.12107
Time = 810

PIMPLE: iteration 1
smoothSolver:  Solving for Ux, Initial residual = 0.00161668, Final residual = 5.94876e-07, No Iterations 1
smoothSolver:  Solving for Uy, Initial residual = 0.00110771, Final residual = 5.38876e-07, No Iterations 1
GAMG:  Solving for p, Initial residual = 0.00553652, Final residual = 1.75484e-05, No Iterations 2
time step continuity errors : sum local = 2.11318e-10, global = 4.39904e-12, cumulative = 9.37855e-07
GAMG:  Solving for p, Initial residual = 0.000275413, Final residual = 4.59562e-07, No Iterations 4
time step continuity errors : sum local = 5.51344e-12, global = 1.14918e-12, cumulative = 9.37856e-07
ExecutionTime = 1.61 s  ClockTime = 2 s

Courant Number mean: 0.0357974 max: 0.121074
Time = 820

PIMPLE: iteration 1
smoothSolver:  Solving for Ux, Initial residual = 0.00161049, Final residual = 5.9139e-07, No Iterations 1
smoothSolver:  Solving for Uy, Initial residual = 0.00110279, Final residual = 5.36392e-07, No Iterations 1
GAMG:  Solving for p, Initial residual = 0.00557256, Final residual = 1.83441e-05, No Iterations 2
time step continuity errors : sum local = 2.19211e-10, global = 4.49613e-12, cumulative = 9.37861e-07
GAMG:  Solving for p, Initial residual = 0.000304529, Final residual = 4.73395e-07, No Iterations 4
time step continuity errors : sum local = 5.63641e-12, global = 1.19648e-12, cumulative = 9.37862e-07
ExecutionTime = 1.63 s  ClockTime = 2 s

Courant Number mean: 0.0357976 max: 0.121077
Time = 830

PIMPLE: iteration 1
smoothSolver:  Solving for Ux, Initial residual = 0.00160443, Final residual = 5.87778e-07, No Iterations 1
smoothSolver:  Solving for Uy, Initial residual = 0.00109791, Final residual = 5.34141e-07, No Iterations 1
GAMG:  Solving for p, Initial residual = 0.0054715, Final residual = 1.7641e-05, No Iterations 2
time step continuity errors : sum local = 2.09212e-10, global = 4.53942e-12, cumulative = 9.37867e-07
GAMG:  Solving for p, Initial residual = 0.000294975, Final residual = 4.7993e-07, No Iterations 4
time step continuity errors : sum local = 5.67064e-12, global = 1.18251e-12, cumulative = 9.37868e-07
ExecutionTime = 1.65 s  ClockTime = 2 s

Courant Number mean: 0.0357977 max: 0.121081
Time = 840

PIMPLE: iteration 1
smoothSolver:  Solving for Ux, Initial residual = 0.00159834, Final residual = 5.844e-07, No Iterations 1
smoothSolver:  Solving for Uy, Initial residual = 0.00109318, Final residual = 5.31833e-07, No Iterations 1
GAMG:  Solving for p, Initial residual = 0.00548252, Final residual = 1.95413e-05, No Iterations 2
time step continuity errors : sum local = 2.30018e-10, global = 4.45018e-12, cumulative = 9.37872e-07
GAMG:  Solving for p, Initial residual = 0.000310127, Final residual = 5.20941e-07, No Iterations 4
time step continuity errors : sum local = 6.11054e-12, global = 1.14864e-12, cumulative = 9.37873e-07
ExecutionTime = 1.67 s  ClockTime = 2 s

Courant Number mean: 0.0357979 max: 0.121083
Time = 850

PIMPLE: iteration 1
smoothSolver:  Solving for Ux, Initial residual = 0.00159225, Final residual = 5.80709e-07, No Iterations 1
smoothSolver:  Solving for Uy, Initial residual = 0.00108814, Final residual = 5.29466e-07, No Iterations 1
GAMG:  Solving for p, Initial residual = 0.00544188, Final residual = 1.8555e-05, No Iterations 2
time step continuity errors : sum local = 2.16774e-10, global = 4.41877e-12, cumulative = 9.37878e-07
GAMG:  Solving for p, Initial residual = 0.000287764, Final residual = 5.31837e-07, No Iterations 4
time step continuity errors : sum local = 6.1905e-12, global = 1.19578e-12, cumulative = 9.37879e-07
ExecutionTime = 1.69 s  ClockTime = 2 s

Courant Number mean: 0.0357981 max: 0.121085
Time = 860

PIMPLE: iteration 1
smoothSolver:  Solving for Ux, Initial residual = 0.00158616, Final residual = 5.77217e-07, No Iterations 1
smoothSolver:  Solving for Uy, Initial residual = 0.0010835, Final residual = 5.28143e-07, No Iterations 1
GAMG:  Solving for p, Initial residual = 0.00550301, Final residual = 1.79243e-05, No Iterations 2
time step continuity errors : sum local = 2.07811e-10, global = 4.54328e-12, cumulative = 9.37883e-07
GAMG:  Solving for p, Initial residual = 0.000272051, Final residual = 5.32746e-07, No Iterations 4
time step continuity errors : sum local = 6.1541e-12, global = 1.1566e-12, cumulative = 9.37885e-07
ExecutionTime = 1.72 s  ClockTime = 2 s

Courant Number mean: 0.0357982 max: 0.121088
Time = 870

PIMPLE: iteration 1
smoothSolver:  Solving for Ux, Initial residual = 0.00158017, Final residual = 5.7346e-07, No Iterations 1
smoothSolver:  Solving for Uy, Initial residual = 0.00107878, Final residual = 5.26951e-07, No Iterations 1
GAMG:  Solving for p, Initial residual = 0.00554823, Final residual = 1.72223e-05, No Iterations 2
time step continuity errors : sum local = 1.98164e-10, global = 4.46339e-12, cumulative = 9.37889e-07
GAMG:  Solving for p, Initial residual = 0.000274315, Final residual = 5.49267e-07, No Iterations 4
time step continuity errors : sum local = 6.29712e-12, global = 1.24037e-12, cumulative = 9.3789e-07
ExecutionTime = 1.74 s  ClockTime = 2 s

Courant Number mean: 0.0357984 max: 0.12109
Time = 880

PIMPLE: iteration 1
smoothSolver:  Solving for Ux, Initial residual = 0.00157422, Final residual = 5.70144e-07, No Iterations 1
smoothSolver:  Solving for Uy, Initial residual = 0.00107338, Final residual = 5.23145e-07, No Iterations 1
GAMG:  Solving for p, Initial residual = 0.00547119, Final residual = 1.8019e-05, No Iterations 2
time step continuity errors : sum local = 2.05762e-10, global = 4.66585e-12, cumulative = 9.37895e-07
GAMG:  Solving for p, Initial residual = 0.000273882, Final residual = 5.61635e-07, No Iterations 4
time step continuity errors : sum local = 6.39023e-12, global = 1.20211e-12, cumulative = 9.37896e-07
ExecutionTime = 1.76 s  ClockTime = 2 s

Courant Number mean: 0.0357985 max: 0.121093
Time = 890

PIMPLE: iteration 1
smoothSolver:  Solving for Ux, Initial residual = 0.00156841, Final residual = 5.66649e-07, No Iterations 1
smoothSolver:  Solving for Uy, Initial residual = 0.00106859, Final residual = 5.21655e-07, No Iterations 1
GAMG:  Solving for p, Initial residual = 0.00539026, Final residual = 1.75389e-05, No Iterations 2
time step continuity errors : sum local = 1.98802e-10, global = 4.56307e-12, cumulative = 9.37901e-07
GAMG:  Solving for p, Initial residual = 0.000276744, Final residual = 5.52344e-07, No Iterations 4
time step continuity errors : sum local = 6.23921e-12, global = 1.22836e-12, cumulative = 9.37902e-07
ExecutionTime = 1.77 s  ClockTime = 2 s

Courant Number mean: 0.0357987 max: 0.121095
Time = 900

PIMPLE: iteration 1
smoothSolver:  Solving for Ux, Initial residual = 0.00156264, Final residual = 5.63498e-07, No Iterations 1
smoothSolver:  Solving for Uy, Initial residual = 0.00106351, Final residual = 5.18643e-07, No Iterations 1
GAMG:  Solving for p, Initial residual = 0.00535387, Final residual = 1.79527e-05, No Iterations 2
time step continuity errors : sum local = 2.02e-10, global = 4.34231e-12, cumulative = 9.37906e-07
GAMG:  Solving for p, Initial residual = 0.000278398, Final residual = 6.74672e-07, No Iterations 4
time step continuity errors : sum local = 7.5644e-12, global = 1.35155e-12, cumulative = 9.37908e-07
ExecutionTime = 1.79 s  ClockTime = 2 s

Courant Number mean: 0.0357988 max: 0.121097
Time = 910

PIMPLE: iteration 1
smoothSolver:  Solving for Ux, Initial residual = 0.00155672, Final residual = 5.59995e-07, No Iterations 1
smoothSolver:  Solving for Uy, Initial residual = 0.00105869, Final residual = 5.16958e-07, No Iterations 1
GAMG:  Solving for p, Initial residual = 0.00517345, Final residual = 1.69208e-05, No Iterations 2
time step continuity errors : sum local = 1.88993e-10, global = 4.64657e-12, cumulative = 9.37912e-07
GAMG:  Solving for p, Initial residual = 0.000262402, Final residual = 6.33464e-07, No Iterations 4
time step continuity errors : sum local = 7.05089e-12, global = 1.31286e-12, cumulative = 9.37914e-07
ExecutionTime = 1.8 s  ClockTime = 2 s

Courant Number mean: 0.035799 max: 0.121098
Time = 920

PIMPLE: iteration 1
smoothSolver:  Solving for Ux, Initial residual = 0.00155085, Final residual = 5.56851e-07, No Iterations 1
smoothSolver:  Solving for Uy, Initial residual = 0.0010538, Final residual = 5.14375e-07, No Iterations 1
GAMG:  Solving for p, Initial residual = 0.00502068, Final residual = 1.68259e-05, No Iterations 2
time step continuity errors : sum local = 1.86588e-10, global = 4.53881e-12, cumulative = 9.37918e-07
GAMG:  Solving for p, Initial residual = 0.000249608, Final residual = 6.06006e-07, No Iterations 4
time step continuity errors : sum local = 6.69783e-12, global = 1.21932e-12, cumulative = 9.37919e-07
ExecutionTime = 1.82 s  ClockTime = 2 s

Courant Number mean: 0.0357991 max: 0.121099
Time = 930

PIMPLE: iteration 1
smoothSolver:  Solving for Ux, Initial residual = 0.00154507, Final residual = 5.53424e-07, No Iterations 1
smoothSolver:  Solving for Uy, Initial residual = 0.00104916, Final residual = 5.12385e-07, No Iterations 1
GAMG:  Solving for p, Initial residual = 0.00489806, Final residual = 1.62925e-05, No Iterations 2
time step continuity errors : sum local = 1.79424e-10, global = 4.47397e-12, cumulative = 9.37924e-07
GAMG:  Solving for p, Initial residual = 0.000244072, Final residual = 5.82773e-07, No Iterations 4
time step continuity errors : sum local = 6.39721e-12, global = 1.20868e-12, cumulative = 9.37925e-07
ExecutionTime = 1.83 s  ClockTime = 2 s

Courant Number mean: 0.0357993 max: 0.121099
Time = 940

PIMPLE: iteration 1
smoothSolver:  Solving for Ux, Initial residual = 0.00153936, Final residual = 5.50319e-07, No Iterations 1
smoothSolver:  Solving for Uy, Initial residual = 0.00104456, Final residual = 5.10108e-07, No Iterations 1
GAMG:  Solving for p, Initial residual = 0.00480804, Final residual = 1.62795e-05, No Iterations 2
time step continuity errors : sum local = 1.78077e-10, global = 4.51058e-12, cumulative = 9.3793e-07
GAMG:  Solving for p, Initial residual = 0.000241754, Final residual = 5.99862e-07, No Iterations 4
time step continuity errors : sum local = 6.54125e-12, global = 1.18729e-12, cumulative = 9.37931e-07
ExecutionTime = 1.85 s  ClockTime = 2 s

Courant Number mean: 0.0357994 max: 0.121099
Time = 950

PIMPLE: iteration 1
smoothSolver:  Solving for Ux, Initial residual = 0.00153372, Final residual = 5.47042e-07, No Iterations 1
smoothSolver:  Solving for Uy, Initial residual = 0.00103987, Final residual = 5.08043e-07, No Iterations 1
GAMG:  Solving for p, Initial residual = 0.00471076, Final residual = 1.61472e-05, No Iterations 2
time step continuity errors : sum local = 1.75461e-10, global = 4.50153e-12, cumulative = 9.37935e-07
GAMG:  Solving for p, Initial residual = 0.000238163, Final residual = 6.16109e-07, No Iterations 4
time step continuity errors : sum local = 6.67389e-12, global = 1.23437e-12, cumulative = 9.37937e-07
ExecutionTime = 1.87 s  ClockTime = 2 s

Courant Number mean: 0.0357996 max: 0.121098
Time = 960

PIMPLE: iteration 1
smoothSolver:  Solving for Ux, Initial residual = 0.00152814, Final residual = 5.4399e-07, No Iterations 1
smoothSolver:  Solving for Uy, Initial residual = 0.00103511, Final residual = 5.05966e-07, No Iterations 1
GAMG:  Solving for p, Initial residual = 0.00462751, Final residual = 1.58995e-05, No Iterations 2
time step continuity errors : sum local = 1.71635e-10, global = 4.53948e-12, cumulative = 9.37941e-07
GAMG:  Solving for p, Initial residual = 0.000231553, Final residual = 6.23999e-07, No Iterations 4
time step continuity errors : sum local = 6.71557e-12, global = 1.213e-12, cumulative = 9.37942e-07
ExecutionTime = 1.88 s  ClockTime = 2 s

Courant Number mean: 0.0357997 max: 0.121097
Time = 970

PIMPLE: iteration 1
smoothSolver:  Solving for Ux, Initial residual = 0.00152261, Final residual = 5.40785e-07, No Iterations 1
smoothSolver:  Solving for Uy, Initial residual = 0.00103045, Final residual = 5.0388e-07, No Iterations 1
GAMG:  Solving for p, Initial residual = 0.00454577, Final residual = 1.57543e-05, No Iterations 2
time step continuity errors : sum local = 1.68964e-10, global = 4.45933e-12, cumulative = 9.37947e-07
GAMG:  Solving for p, Initial residual = 0.000228491, Final residual = 6.28164e-07, No Iterations 4
time step continuity errors : sum local = 6.71647e-12, global = 1.22485e-12, cumulative = 9.37948e-07
ExecutionTime = 1.9 s  ClockTime = 2 s

Courant Number mean: 0.0357998 max: 0.121096
Time = 980

PIMPLE: iteration 1
smoothSolver:  Solving for Ux, Initial residual = 0.00151718, Final residual = 5.37784e-07, No Iterations 1
smoothSolver:  Solving for Uy, Initial residual = 0.0010258, Final residual = 5.01844e-07, No Iterations 1
GAMG:  Solving for p, Initial residual = 0.00450109, Final residual = 1.5611e-05, No Iterations 2
time step continuity errors : sum local = 1.66351e-10, global = 4.50847e-12, cumulative = 9.37952e-07
GAMG:  Solving for p, Initial residual = 0.000233238, Final residual = 6.46565e-07, No Iterations 4
time step continuity errors : sum local = 6.86924e-12, global = 1.22626e-12, cumulative = 9.37954e-07
ExecutionTime = 1.91 s  ClockTime = 2 s

Courant Number mean: 0.0358 max: 0.121093
Time = 990

PIMPLE: iteration 1
smoothSolver:  Solving for Ux, Initial residual = 0.00151181, Final residual = 5.34659e-07, No Iterations 1
smoothSolver:  Solving for Uy, Initial residual = 0.001021, Final residual = 4.99703e-07, No Iterations 1
GAMG:  Solving for p, Initial residual = 0.00442748, Final residual = 1.52691e-05, No Iterations 2
time step continuity errors : sum local = 1.61673e-10, global = 4.51007e-12, cumulative = 9.37958e-07
GAMG:  Solving for p, Initial residual = 0.000230652, Final residual = 6.56796e-07, No Iterations 4
time step continuity errors : sum local = 6.93362e-12, global = 1.24245e-12, cumulative = 9.37959e-07
ExecutionTime = 1.93 s  ClockTime = 2 s

Courant Number mean: 0.0358001 max: 0.121091
Time = 1000

PIMPLE: iteration 1
smoothSolver:  Solving for Ux, Initial residual = 0.00150668, Final residual = 5.31831e-07, No Iterations 1
smoothSolver:  Solving for Uy, Initial residual = 0.00101633, Final residual = 4.97601e-07, No Iterations 1
GAMG:  Solving for p, Initial residual = 0.00440963, Final residual = 1.60183e-05, No Iterations 2
time step continuity errors : sum local = 1.68541e-10, global = 4.54439e-12, cumulative = 9.37964e-07
GAMG:  Solving for p, Initial residual = 0.000249628, Final residual = 6.56147e-07, No Iterations 4
time step continuity errors : sum local = 6.88403e-12, global = 1.25684e-12, cumulative = 9.37965e-07
ExecutionTime = 1.97 s  ClockTime = 2 s

Courant Number mean: 0.0358002 max: 0.121088
Time = 1010

PIMPLE: iteration 1
smoothSolver:  Solving for Ux, Initial residual = 0.00150186, Final residual = 5.29014e-07, No Iterations 1
smoothSolver:  Solving for Uy, Initial residual = 0.00101183, Final residual = 4.95474e-07, No Iterations 1
GAMG:  Solving for p, Initial residual = 0.00452244, Final residual = 1.71331e-05, No Iterations 2
time step continuity errors : sum local = 1.79143e-10, global = 4.55695e-12, cumulative = 9.3797e-07
GAMG:  Solving for p, Initial residual = 0.000274734, Final residual = 6.79257e-07, No Iterations 4
time step continuity errors : sum local = 7.08103e-12, global = 1.32085e-12, cumulative = 9.37971e-07
ExecutionTime = 1.99 s  ClockTime = 2 s

Courant Number mean: 0.0358004 max: 0.121084
Time = 1020

PIMPLE: iteration 1
smoothSolver:  Solving for Ux, Initial residual = 0.00149705, Final residual = 5.26257e-07, No Iterations 1
smoothSolver:  Solving for Uy, Initial residual = 0.0010079, Final residual = 4.94567e-07, No Iterations 1
GAMG:  Solving for p, Initial residual = 0.00452649, Final residual = 1.5386e-05, No Iterations 2
time step continuity errors : sum local = 1.5986e-10, global = 4.6806e-12, cumulative = 9.37976e-07
GAMG:  Solving for p, Initial residual = 0.000229187, Final residual = 6.73118e-07, No Iterations 4
time step continuity errors : sum local = 6.97297e-12, global = 1.25241e-12, cumulative = 9.37977e-07
ExecutionTime = 2 s  ClockTime = 2 s

Courant Number mean: 0.0358005 max: 0.12108
Time = 1030

PIMPLE: iteration 1
smoothSolver:  Solving for Ux, Initial residual = 0.00149217, Final residual = 5.23361e-07, No Iterations 1
smoothSolver:  Solving for Uy, Initial residual = 0.00100387, Final residual = 4.92757e-07, No Iterations 1
GAMG:  Solving for p, Initial residual = 0.00443339, Final residual = 1.57415e-05, No Iterations 2
time step continuity errors : sum local = 1.62494e-10, global = 4.48766e-12, cumulative = 9.37982e-07
GAMG:  Solving for p, Initial residual = 0.000223007, Final residual = 7.02489e-07, No Iterations 4
time step continuity errors : sum local = 7.22909e-12, global = 1.28025e-12, cumulative = 9.37983e-07
ExecutionTime = 2.02 s  ClockTime = 2 s

Courant Number mean: 0.0358006 max: 0.121076
Time = 1040

PIMPLE: iteration 1
smoothSolver:  Solving for Ux, Initial residual = 0.00148733, Final residual = 5.20529e-07, No Iterations 1
smoothSolver:  Solving for Uy, Initial residual = 0.00100012, Final residual = 4.91867e-07, No Iterations 1
GAMG:  Solving for p, Initial residual = 0.00434458, Final residual = 1.51232e-05, No Iterations 2
time step continuity errors : sum local = 1.5512e-10, global = 4.63363e-12, cumulative = 9.37987e-07
GAMG:  Solving for p, Initial residual = 0.000215544, Final residual = 7.02679e-07, No Iterations 4
time step continuity errors : sum local = 7.18701e-12, global = 1.27471e-12, cumulative = 9.37989e-07
ExecutionTime = 2.03 s  ClockTime = 2 s

Courant Number mean: 0.0358007 max: 0.121072
Time = 1050

PIMPLE: iteration 1
smoothSolver:  Solving for Ux, Initial residual = 0.00148253, Final residual = 5.17796e-07, No Iterations 1
smoothSolver:  Solving for Uy, Initial residual = 0.000996219, Final residual = 4.89596e-07, No Iterations 1
GAMG:  Solving for p, Initial residual = 0.00421407, Final residual = 1.54092e-05, No Iterations 2
time step continuity errors : sum local = 1.5707e-10, global = 4.59198e-12, cumulative = 9.37993e-07
GAMG:  Solving for p, Initial residual = 0.000208583, Final residual = 7.18178e-07, No Iterations 4
time step continuity errors : sum local = 7.29906e-12, global = 1.28571e-12, cumulative = 9.37995e-07
ExecutionTime = 2.05 s  ClockTime = 2 s

Courant Number mean: 0.0358009 max: 0.121067
Time = 1060

PIMPLE: iteration 1
smoothSolver:  Solving for Ux, Initial residual = 0.00147775, Final residual = 5.15107e-07, No Iterations 1
smoothSolver:  Solving for Uy, Initial residual = 0.000992937, Final residual = 4.88471e-07, No Iterations 1
GAMG:  Solving for p, Initial residual = 0.00414002, Final residual = 1.49073e-05, No Iterations 2
time step continuity errors : sum local = 1.5102e-10, global = 4.6281e-12, cumulative = 9.37999e-07
GAMG:  Solving for p, Initial residual = 0.000206793, Final residual = 7.18316e-07, No Iterations 4
time step continuity errors : sum local = 7.25687e-12, global = 1.28033e-12, cumulative = 9.38001e-07
ExecutionTime = 2.06 s  ClockTime = 2 s

Courant Number mean: 0.035801 max: 0.121062
Time = 1070

PIMPLE: iteration 1
smoothSolver:  Solving for Ux, Initial residual = 0.001473, Final residual = 5.12457e-07, No Iterations 1
smoothSolver:  Solving for Uy, Initial residual = 0.000989279, Final residual = 4.86478e-07, No Iterations 1
GAMG:  Solving for p, Initial residual = 0.00406885, Final residual = 1.48917e-05, No Iterations 2
[...]
ExecutionTime = 3.1 s  ClockTime = 3 s

Courant Number mean: 0.0358067 max: 0.120422
Time = 1740

PIMPLE: iteration 1
smoothSolver:  Solving for Ux, Initial residual = 0.00123393, Final residual = 3.85979e-07, No Iterations 1
smoothSolver:  Solving for Uy, Initial residual = 0.00084207, Final residual = 4.29138e-07, No Iterations 1
GAMG:  Solving for p, Initial residual = 0.0033068, Final residual = 2.29686e-05, No Iterations 2
time step continuity errors : sum local = 1.75364e-10, global = 3.79666e-12, cumulative = 9.38385e-07
GAMG:  Solving for p, Initial residual = 0.000361861, Final residual = 4.79603e-07, No Iterations 5
time step continuity errors : sum local = 3.65727e-12, global = 7.48673e-13, cumulative = 9.38386e-07
ExecutionTime = 3.12 s  ClockTime = 3 s

Courant Number mean: 0.0358068 max: 0.120409
Time = 1750

PIMPLE: iteration 1
smoothSolver:  Solving for Ux, Initial residual = 0.00123105, Final residual = 3.84893e-07, No Iterations 1
smoothSolver:  Solving for Uy, Initial residual = 0.000839768, Final residual = 4.28059e-07, No Iterations 1
GAMG:  Solving for p, Initial residual = 0.0031355, Final residual = 2.25439e-05, No Iterations 2
time step continuity errors : sum local = 1.71632e-10, global = 3.1752e-12, cumulative = 9.38389e-07
GAMG:  Solving for p, Initial residual = 0.000320428, Final residual = 4.65542e-07, No Iterations 5
time step continuity errors : sum local = 3.54001e-12, global = 6.92022e-13, cumulative = 9.3839e-07
ExecutionTime = 3.14 s  ClockTime = 3 s

Courant Number mean: 0.0358069 max: 0.120397
Time = 1760

PIMPLE: iteration 1
smoothSolver:  Solving for Ux, Initial residual = 0.00122829, Final residual = 3.83785e-07, No Iterations 1
smoothSolver:  Solving for Uy, Initial residual = 0.000837917, Final residual = 4.27614e-07, No Iterations 1
GAMG:  Solving for p, Initial residual = 0.0032789, Final residual = 2.40345e-05, No Iterations 2
time step continuity errors : sum local = 1.82383e-10, global = 3.21498e-12, cumulative = 9.38393e-07
GAMG:  Solving for p, Initial residual = 0.000340724, Final residual = 5.3209e-07, No Iterations 5
time step continuity errors : sum local = 4.03116e-12, global = 8.8556e-13, cumulative = 9.38394e-07
ExecutionTime = 3.16 s  ClockTime = 3 s

Courant Number mean: 0.035807 max: 0.120385
Time = 1770

PIMPLE: iteration 1
smoothSolver:  Solving for Ux, Initial residual = 0.00122561, Final residual = 3.82932e-07, No Iterations 1
smoothSolver:  Solving for Uy, Initial residual = 0.000836435, Final residual = 4.2844e-07, No Iterations 1
GAMG:  Solving for p, Initial residual = 0.00280766, Final residual = 1.9876e-05, No Iterations 2
time step continuity errors : sum local = 1.50394e-10, global = 3.93583e-12, cumulative = 9.38398e-07
GAMG:  Solving for p, Initial residual = 0.000223169, Final residual = 8.87182e-07, No Iterations 4
time step continuity errors : sum local = 6.70661e-12, global = 1.28532e-12, cumulative = 9.38399e-07
ExecutionTime = 3.18 s  ClockTime = 3 s

Courant Number mean: 0.0358071 max: 0.120373
Time = 1780

PIMPLE: iteration 1
smoothSolver:  Solving for Ux, Initial residual = 0.00122298, Final residual = 3.81872e-07, No Iterations 1
smoothSolver:  Solving for Uy, Initial residual = 0.000834859, Final residual = 4.27922e-07, No Iterations 1
GAMG:  Solving for p, Initial residual = 0.00289395, Final residual = 2.14774e-05, No Iterations 2
time step continuity errors : sum local = 1.62158e-10, global = 4.51489e-12, cumulative = 9.38404e-07
GAMG:  Solving for p, Initial residual = 0.000228815, Final residual = 9.42211e-07, No Iterations 4
time step continuity errors : sum local = 7.10781e-12, global = 1.37474e-12, cumulative = 9.38405e-07
ExecutionTime = 3.19 s  ClockTime = 3 s

Courant Number mean: 0.0358071 max: 0.12036
Time = 1790

PIMPLE: iteration 1
smoothSolver:  Solving for Ux, Initial residual = 0.00122032, Final residual = 3.80854e-07, No Iterations 1
smoothSolver:  Solving for Uy, Initial residual = 0.000833203, Final residual = 4.27631e-07, No Iterations 1
GAMG:  Solving for p, Initial residual = 0.00267725, Final residual = 2.08219e-05, No Iterations 2
time step continuity errors : sum local = 1.56899e-10, global = 4.49699e-12, cumulative = 9.3841e-07
GAMG:  Solving for p, Initial residual = 0.000253833, Final residual = 7.88355e-07, No Iterations 4
time step continuity errors : sum local = 5.9362e-12, global = 1.29335e-12, cumulative = 9.38411e-07
ExecutionTime = 3.21 s  ClockTime = 3 s

Courant Number mean: 0.0358072 max: 0.120348
Time = 1800

PIMPLE: iteration 1
smoothSolver:  Solving for Ux, Initial residual = 0.00121774, Final residual = 3.79746e-07, No Iterations 1
smoothSolver:  Solving for Uy, Initial residual = 0.000831314, Final residual = 4.26116e-07, No Iterations 1
GAMG:  Solving for p, Initial residual = 0.00281471, Final residual = 2.12539e-05, No Iterations 2
time step continuity errors : sum local = 1.59802e-10, global = 3.96893e-12, cumulative = 9.38415e-07
GAMG:  Solving for p, Initial residual = 0.000248221, Final residual = 8.81865e-07, No Iterations 4
time step continuity errors : sum local = 6.62303e-12, global = 1.36754e-12, cumulative = 9.38416e-07
ExecutionTime = 3.22 s  ClockTime = 3 s

Courant Number mean: 0.0358073 max: 0.120336
Time = 1810

PIMPLE: iteration 1
smoothSolver:  Solving for Ux, Initial residual = 0.00121515, Final residual = 3.78765e-07, No Iterations 1
smoothSolver:  Solving for Uy, Initial residual = 0.000829602, Final residual = 4.25813e-07, No Iterations 1
GAMG:  Solving for p, Initial residual = 0.00279361, Final residual = 1.92899e-05, No Iterations 2
time step continuity errors : sum local = 1.44642e-10, global = 4.24028e-12, cumulative = 9.3842e-07
GAMG:  Solving for p, Initial residual = 0.000255339, Final residual = 7.9727e-07, No Iterations 4
time step continuity errors : sum local = 5.97059e-12, global = 1.37108e-12, cumulative = 9.38422e-07
ExecutionTime = 3.24 s  ClockTime = 3 s

Courant Number mean: 0.0358074 max: 0.120324
Time = 1820

PIMPLE: iteration 1
smoothSolver:  Solving for Ux, Initial residual = 0.00121255, Final residual = 3.7779e-07, No Iterations 1
smoothSolver:  Solving for Uy, Initial residual = 0.000827805, Final residual = 4.25542e-07, No Iterations 1
GAMG:  Solving for p, Initial residual = 0.00253434, Final residual = 2.0445e-05, No Iterations 2
time step continuity errors : sum local = 1.529e-10, global = 4.19156e-12, cumulative = 9.38426e-07
GAMG:  Solving for p, Initial residual = 0.000212158, Final residual = 7.97204e-07, No Iterations 4
time step continuity errors : sum local = 5.95565e-12, global = 1.26546e-12, cumulative = 9.38427e-07
ExecutionTime = 3.25 s  ClockTime = 3 s

Courant Number mean: 0.0358075 max: 0.120312
Time = 1830

PIMPLE: iteration 1
smoothSolver:  Solving for Ux, Initial residual = 0.00120994, Final residual = 3.76772e-07, No Iterations 1
smoothSolver:  Solving for Uy, Initial residual = 0.000825867, Final residual = 4.24824e-07, No Iterations 1
GAMG:  Solving for p, Initial residual = 0.00254659, Final residual = 2.107e-05, No Iterations 2
time step continuity errors : sum local = 1.57212e-10, global = 4.0532e-12, cumulative = 9.38431e-07
GAMG:  Solving for p, Initial residual = 0.000222082, Final residual = 9.19695e-07, No Iterations 4
time step continuity errors : sum local = 6.85621e-12, global = 1.27565e-12, cumulative = 9.38433e-07
ExecutionTime = 3.26 s  ClockTime = 3 s

Courant Number mean: 0.0358076 max: 0.1203
Time = 1840

PIMPLE: iteration 1
smoothSolver:  Solving for Ux, Initial residual = 0.00120731, Final residual = 3.75713e-07, No Iterations 1
smoothSolver:  Solving for Uy, Initial residual = 0.000823826, Final residual = 4.23823e-07, No Iterations 1
GAMG:  Solving for p, Initial residual = 0.00246802, Final residual = 1.91577e-05, No Iterations 2
time step continuity errors : sum local = 1.4263e-10, global = 4.17332e-12, cumulative = 9.38437e-07
GAMG:  Solving for p, Initial residual = 0.000203524, Final residual = 8.56557e-07, No Iterations 4
time step continuity errors : sum local = 6.37131e-12, global = 1.25086e-12, cumulative = 9.38438e-07
ExecutionTime = 3.28 s  ClockTime = 3 s

Courant Number mean: 0.0358076 max: 0.120288
Time = 1850

PIMPLE: iteration 1
smoothSolver:  Solving for Ux, Initial residual = 0.00120465, Final residual = 3.74666e-07, No Iterations 1
smoothSolver:  Solving for Uy, Initial residual = 0.000821778, Final residual = 4.22847e-07, No Iterations 1
GAMG:  Solving for p, Initial residual = 0.0025738, Final residual = 1.99231e-05, No Iterations 2
time step continuity errors : sum local = 1.47997e-10, global = 4.14896e-12, cumulative = 9.38442e-07
GAMG:  Solving for p, Initial residual = 0.000220135, Final residual = 8.80678e-07, No Iterations 4
time step continuity errors : sum local = 6.5359e-12, global = 1.27096e-12, cumulative = 9.38443e-07
ExecutionTime = 3.3 s  ClockTime = 3 s

Courant Number mean: 0.0358077 max: 0.120276
Time = 1860

PIMPLE: iteration 1
smoothSolver:  Solving for Ux, Initial residual = 0.00120192, Final residual = 3.73607e-07, No Iterations 1
smoothSolver:  Solving for Uy, Initial residual = 0.000819797, Final residual = 4.21937e-07, No Iterations 1
GAMG:  Solving for p, Initial residual = 0.00270705, Final residual = 1.99614e-05, No Iterations 2
time step continuity errors : sum local = 1.4792e-10, global = 4.23319e-12, cumulative = 9.38448e-07
GAMG:  Solving for p, Initial residual = 0.000220887, Final residual = 8.14645e-07, No Iterations 4
time step continuity errors : sum local = 6.03018e-12, global = 1.25469e-12, cumulative = 9.38449e-07
ExecutionTime = 3.31 s  ClockTime = 4 s

Courant Number mean: 0.0358078 max: 0.120265
Time = 1870

PIMPLE: iteration 1
smoothSolver:  Solving for Ux, Initial residual = 0.00119911, Final residual = 3.72507e-07, No Iterations 1
smoothSolver:  Solving for Uy, Initial residual = 0.000817948, Final residual = 4.20993e-07, No Iterations 1
GAMG:  Solving for p, Initial residual = 0.00271633, Final residual = 2.14316e-05, No Iterations 2
time step continuity errors : sum local = 1.58426e-10, global = 4.24001e-12, cumulative = 9.38453e-07
GAMG:  Solving for p, Initial residual = 0.000251911, Final residual = 8.31506e-07, No Iterations 4
time step continuity errors : sum local = 6.1408e-12, global = 1.29637e-12, cumulative = 9.38454e-07
ExecutionTime = 3.33 s  ClockTime = 4 s

Courant Number mean: 0.0358079 max: 0.120253
Time = 1880

PIMPLE: iteration 1
smoothSolver:  Solving for Ux, Initial residual = 0.0011964, Final residual = 3.71427e-07, No Iterations 1
smoothSolver:  Solving for Uy, Initial residual = 0.000816484, Final residual = 4.19937e-07, No Iterations 1
GAMG:  Solving for p, Initial residual = 0.00277866, Final residual = 1.96116e-05, No Iterations 2
time step continuity errors : sum local = 1.44617e-10, global = 3.91718e-12, cumulative = 9.38458e-07
GAMG:  Solving for p, Initial residual = 0.000259705, Final residual = 4.96834e-07, No Iterations 5
time step continuity errors : sum local = 3.65952e-12, global = 7.23562e-13, cumulative = 9.38459e-07
ExecutionTime = 3.34 s  ClockTime = 4 s

Courant Number mean: 0.035808 max: 0.120242
Time = 1890

PIMPLE: iteration 1
smoothSolver:  Solving for Ux, Initial residual = 0.00119415, Final residual = 3.70488e-07, No Iterations 1
smoothSolver:  Solving for Uy, Initial residual = 0.000814454, Final residual = 4.18748e-07, No Iterations 1
GAMG:  Solving for p, Initial residual = 0.0028285, Final residual = 1.77624e-05, No Iterations 2
time step continuity errors : sum local = 1.30631e-10, global = 2.72276e-12, cumulative = 9.38462e-07
GAMG:  Solving for p, Initial residual = 0.000258226, Final residual = 4.96295e-07, No Iterations 5
time step continuity errors : sum local = 3.6461e-12, global = 6.99889e-13, cumulative = 9.38462e-07
ExecutionTime = 3.36 s  ClockTime = 4 s

Courant Number mean: 0.0358081 max: 0.12023
Time = 1900

PIMPLE: iteration 1
smoothSolver:  Solving for Ux, Initial residual = 0.00119189, Final residual = 3.69553e-07, No Iterations 1
smoothSolver:  Solving for Uy, Initial residual = 0.000812677, Final residual = 4.17567e-07, No Iterations 1
GAMG:  Solving for p, Initial residual = 0.00276809, Final residual = 2.06469e-05, No Iterations 2
time step continuity errors : sum local = 1.51428e-10, global = 3.5738e-12, cumulative = 9.38466e-07
GAMG:  Solving for p, Initial residual = 0.000233818, Final residual = 8.64226e-07, No Iterations 4
time step continuity errors : sum local = 6.32978e-12, global = 1.22666e-12, cumulative = 9.38467e-07
ExecutionTime = 3.37 s  ClockTime = 4 s

Courant Number mean: 0.0358083 max: 0.120219
Time = 1910

PIMPLE: iteration 1
smoothSolver:  Solving for Ux, Initial residual = 0.00118919, Final residual = 3.68447e-07, No Iterations 1
smoothSolver:  Solving for Uy, Initial residual = 0.000810893, Final residual = 4.16454e-07, No Iterations 1
GAMG:  Solving for p, Initial residual = 0.00281006, Final residual = 2.28445e-05, No Iterations 2
time step continuity errors : sum local = 1.67036e-10, global = 4.85726e-12, cumulative = 9.38472e-07
GAMG:  Solving for p, Initial residual = 0.000274769, Final residual = 4.82714e-07, No Iterations 5
time step continuity errors : sum local = 3.52487e-12, global = 7.40315e-13, cumulative = 9.38473e-07
ExecutionTime = 3.39 s  ClockTime = 4 s

Courant Number mean: 0.0358084 max: 0.120208
Time = 1920

PIMPLE: iteration 1
smoothSolver:  Solving for Ux, Initial residual = 0.00118645, Final residual = 3.67697e-07, No Iterations 1
smoothSolver:  Solving for Uy, Initial residual = 0.000809686, Final residual = 4.1641e-07, No Iterations 1
GAMG:  Solving for p, Initial residual = 0.00244403, Final residual = 2.05724e-05, No Iterations 2
time step continuity errors : sum local = 1.50005e-10, global = 2.75152e-12, cumulative = 9.38476e-07
GAMG:  Solving for p, Initial residual = 0.000261435, Final residual = 8.11649e-07, No Iterations 4
time step continuity errors : sum local = 5.9125e-12, global = 1.31392e-12, cumulative = 9.38477e-07
ExecutionTime = 3.41 s  ClockTime = 4 s

Courant Number mean: 0.0358085 max: 0.120197
Time = 1930

PIMPLE: iteration 1
smoothSolver:  Solving for Ux, Initial residual = 0.00118406, Final residual = 3.66846e-07, No Iterations 1
smoothSolver:  Solving for Uy, Initial residual = 0.000808273, Final residual = 4.15782e-07, No Iterations 1
GAMG:  Solving for p, Initial residual = 0.00229391, Final residual = 1.96628e-05, No Iterations 2
time step continuity errors : sum local = 1.43079e-10, global = 4.64781e-12, cumulative = 9.38482e-07
GAMG:  Solving for p, Initial residual = 0.000200109, Final residual = 8.15631e-07, No Iterations 4
time step continuity errors : sum local = 5.92975e-12, global = 1.32662e-12, cumulative = 9.38483e-07
ExecutionTime = 3.42 s  ClockTime = 4 s

Courant Number mean: 0.0358086 max: 0.120186
Time = 1940

PIMPLE: iteration 1
smoothSolver:  Solving for Ux, Initial residual = 0.00118152, Final residual = 3.65933e-07, No Iterations 1
smoothSolver:  Solving for Uy, Initial residual = 0.000806836, Final residual = 4.15073e-07, No Iterations 1
GAMG:  Solving for p, Initial residual = 0.00237315, Final residual = 2.04018e-05, No Iterations 2
time step continuity errors : sum local = 1.48146e-10, global = 4.30592e-12, cumulative = 9.38487e-07
GAMG:  Solving for p, Initial residual = 0.000219999, Final residual = 8.79339e-07, No Iterations 4
time step continuity errors : sum local = 6.37989e-12, global = 1.32091e-12, cumulative = 9.38489e-07
ExecutionTime = 3.44 s  ClockTime = 4 s

Courant Number mean: 0.0358087 max: 0.120175
Time = 1950

PIMPLE: iteration 1
smoothSolver:  Solving for Ux, Initial residual = 0.00117894, Final residual = 3.65009e-07, No Iterations 1
smoothSolver:  Solving for Uy, Initial residual = 0.00080533, Final residual = 4.14314e-07, No Iterations 1
GAMG:  Solving for p, Initial residual = 0.00237236, Final residual = 2.15892e-05, No Iterations 2
time step continuity errors : sum local = 1.56451e-10, global = 4.0178e-12, cumulative = 9.38493e-07
GAMG:  Solving for p, Initial residual = 0.000208236, Final residual = 9.39225e-07, No Iterations 4
time step continuity errors : sum local = 6.80089e-12, global = 1.34031e-12, cumulative = 9.38494e-07
ExecutionTime = 3.45 s  ClockTime = 4 s

Courant Number mean: 0.0358089 max: 0.120165
Time = 1960

PIMPLE: iteration 1
smoothSolver:  Solving for Ux, Initial residual = 0.00117649, Final residual = 3.6412e-07, No Iterations 1
smoothSolver:  Solving for Uy, Initial residual = 0.000803939, Final residual = 4.13544e-07, No Iterations 1
GAMG:  Solving for p, Initial residual = 0.00244475, Final residual = 2.1052e-05, No Iterations 2
time step continuity errors : sum local = 1.52224e-10, global = 4.30082e-12, cumulative = 9.38498e-07
GAMG:  Solving for p, Initial residual = 0.000209466, Final residual = 8.69431e-07, No Iterations 4
time step continuity errors : sum local = 6.28043e-12, global = 1.28261e-12, cumulative = 9.385e-07
ExecutionTime = 3.47 s  ClockTime = 4 s

Courant Number mean: 0.035809 max: 0.120154
Time = 1970

PIMPLE: iteration 1
smoothSolver:  Solving for Ux, Initial residual = 0.00117395, Final residual = 3.63197e-07, No Iterations 1
smoothSolver:  Solving for Uy, Initial residual = 0.000802618, Final residual = 4.12814e-07, No Iterations 1
GAMG:  Solving for p, Initial residual = 0.00246005, Final residual = 2.05612e-05, No Iterations 2
time step continuity errors : sum local = 1.48288e-10, global = 4.10187e-12, cumulative = 9.38504e-07
GAMG:  Solving for p, Initial residual = 0.000211737, Final residual = 9.12353e-07, No Iterations 4
time step continuity errors : sum local = 6.57215e-12, global = 1.30804e-12, cumulative = 9.38505e-07
ExecutionTime = 3.48 s  ClockTime = 4 s

Courant Number mean: 0.0358091 max: 0.120143
Time = 1980

PIMPLE: iteration 1
smoothSolver:  Solving for Ux, Initial residual = 0.00117151, Final residual = 3.62317e-07, No Iterations 1
smoothSolver:  Solving for Uy, Initial residual = 0.000801119, Final residual = 4.12066e-07, No Iterations 1
GAMG:  Solving for p, Initial residual = 0.00226031, Final residual = 1.96632e-05, No Iterations 2
time step continuity errors : sum local = 1.41453e-10, global = 4.16407e-12, cumulative = 9.38509e-07
GAMG:  Solving for p, Initial residual = 0.000169149, Final residual = 8.1699e-07, No Iterations 4
time step continuity errors : sum local = 5.87162e-12, global = 1.29309e-12, cumulative = 9.3851e-07
ExecutionTime = 3.5 s  ClockTime = 4 s

Courant Number mean: 0.0358093 max: 0.120133
Time = 1990

PIMPLE: iteration 1
smoothSolver:  Solving for Ux, Initial residual = 0.00116915, Final residual = 3.61472e-07, No Iterations 1
smoothSolver:  Solving for Uy, Initial residual = 0.000799824, Final residual = 4.1137e-07, No Iterations 1
GAMG:  Solving for p, Initial residual = 0.00235638, Final residual = 1.88513e-05, No Iterations 2
time step continuity errors : sum local = 1.35302e-10, global = 4.07266e-12, cumulative = 9.38514e-07
GAMG:  Solving for p, Initial residual = 0.000181932, Final residual = 8.02737e-07, No Iterations 4
time step continuity errors : sum local = 5.75584e-12, global = 1.33833e-12, cumulative = 9.38516e-07
ExecutionTime = 3.51 s  ClockTime = 4 s

Courant Number mean: 0.0358094 max: 0.120122
Time = 2000

PIMPLE: iteration 1
smoothSolver:  Solving for Ux, Initial residual = 0.00116675, Final residual = 3.60641e-07, No Iterations 1
smoothSolver:  Solving for Uy, Initial residual = 0.000798604, Final residual = 4.10665e-07, No Iterations 1
GAMG:  Solving for p, Initial residual = 0.00228021, Final residual = 1.78104e-05, No Iterations 2
time step continuity errors : sum local = 1.27562e-10, global = 4.18868e-12, cumulative = 9.3852e-07
GAMG:  Solving for p, Initial residual = 0.000192815, Final residual = 7.83591e-07, No Iterations 4
time step continuity errors : sum local = 5.60764e-12, global = 1.32196e-12, cumulative = 9.38521e-07
ExecutionTime = 3.56 s  ClockTime = 4 s

End

